Using: /usr/local/apps/synopsys/hspice/linux/hspice mosfet_g.sp
 ****** HSPICE -- I-2013.12-SP2-1 32-BIT (Jun 10 2014) RHEL32 ******            
  Copyright (C) 2014 Synopsys, Inc. All Rights Reserved.                        
  Unpublished-rights reserved under US copyright laws.
  This program is protected by law and is subject to the
  terms and conditions of the license agreement from Synopsys.
  Use of this program is your acceptance to be bound by the
  license agreement. HSPICE is the trademark of Synopsys, Inc.
  Input File: mosfet_g.sp                                                       
  Command line options: mosfet_g.sp
 lic:  
 lic: FLEXlm: v10.9.8 
 lic: USER:   niels538             HOSTNAME: ece-brienz 
 lic: HOSTID: 14feb5f0ac13         PID:      40680 
 lic: Using FLEXlm license file: 
 lic: 27020@synopsys.cse.umn.edu 
 lic: Checkout 1 hspice 
 lic: License/Maintenance for hspice will expire on 19-dec-2016/2015.06 
 lic: 18(in_use)/50(total) FLOATING license(s) on SERVER 27020@synopsys.cse.umn.edu 
 lic:   
 Init: read install configuration file: /usr/local/apps/synopsys/hspice/meta.cfg
  **warning** (mosfet_g.sp:11) c        is not level=   3 model parameter. Parameter has been ignored.
 scientific notation:
 a=10**-18  f=10**-15  p=10**-12  n=10**-9  u=10**-6
 m=10**-3   k=10**3    x=10**6    g=10**9 


 circuit parameter definitions
  parameter          =  value 





 constants  - tnom         kt           vt           gapsi        ni
            298.15000    4.1163e-21    25.69184m     1.11562    1.2565e+16 
1****** HSPICE -- I-2013.12-SP2-1 32-BIT (Jun 10 2014) RHEL32 ******            
 ******  
 mosfet i-v curve

 ****** mos   model parameters tnom=  25.000 temp=  25.000 ******
 ***************************************************************************
 *** common model parameters  model name:   0:cmosn    model type:nmos   ***
 ***************************************************************************
     names  values   units     names  values   units     names  values   units
     -----  ------   -----     -----  ------   -----     -----  ------   -----

   1*** geometry parameters ***
       ld= 100.00f meters      lmlt=   1.00                wd= 233.48n meters 
     wmlt=   1.00                xl=   0.    meters        xw=   0.    meters 
     lref=   0.    meters      wref=   0.    meters      lref=   0.    meters 
     wref=   0.    meters     xlref=   0.    meters     xwref=   0.    meters 
     lmin=   0.    meters      wmin=   0.    meters      lmax=   0.    meters 
     wmax=   0.    meters 

   2*** threshold voltage parameters ***
      vto= 764.09m volts        nss=   0.    1/cm**2      tpg=   1.00         
      phi= 700.00m volts      gamma= 548.36m v**0.5      bulk=  gnd           
    ngate=   0.    cm**3       nsub= 1.0e+17 1/cm**3   delvto=   0.    volts  

   3*** gate overlap capacitance parameters ***
     cgbo= 100.00p f/meter     cgdo= 215.00p f/meter     cgso= 215.00p f/meter
     meto=   0.    meters 

   4*** gate capacitance parameters ***
    capop=   2.00               cf1=   0.    volts        cf2= 100.00m volts  
      cf3=   1.00  volts        cf4=  50.00               cf5= 666.67m        
      cf6= 500.00               xqc= 500.00m              tox=  14.00n meters 
      cox=   2.47m f/m**2 

   5*** diffusion parasitic parameters ***
      acm=   0.                  is=  10.00f amps          js=   0.    a/m**2 
      jsw=   0.    amp/m        nds=   1.00               cbd=   0.    farad  
      cbs=   0.    farad         cj= 952.86u f/m**2      cjsw= 314.75p f/m    
   cjgate= 314.75p f/m           mj= 435.90m             mjsw= 197.77m        
       pb= 914.04m volts        php= 914.04m volts         tt=   0.    secs   
     hdif=   0.    meters      ldif=   0.    meters        rd=   0.    ohms   
       rs=   0.    ohms         rsh=   7.51m ohms/sq       fc=   0.           
    alpha=   0.                 vcr=   0.    volts      iirat=   0.           
      rdc=   0.    ohms         rsc=   0.    ohms           n=   1.00         
     vnds=  -1.00  volts  

   6*** temperature effect parameters ***
     tlev=   0.               tlevc=   0.                  eg=   1.11  ev     
     gap1= 702.00u ev/deg      gap2=   1.11k deg          xti=   0.           
      bex=  -1.50               tcv=   0.    v/deg k      trd=   0.    /deg   
      trs=   0.    /deg         cta=   0.    /deg         ctp=   0.    /deg   

   7*** noise parameters ***
       kf=   0.                  af=   1.00              nlev=   2.00         
   gdsnoi=   1.00         

   ***  level  3  model parameters  ***

    delta=   3.05               eta=   3.16u            kappa= 300.00m /v     
      nfs= 1.0e+12 1/cm**2    theta= 101.40m /v          vmax= 144.22k m/sec  
       xj= 300.00n meters        uo= 662.70 cm**2/vs       kp= 125.94u a/v**2 
    deriv=   1.00         
1****** HSPICE -- I-2013.12-SP2-1 32-BIT (Jun 10 2014) RHEL32 ******            
 ******  
 mosfet i-v curve

 ****** circuit element summary tnom=  25.000 temp=  25.000 ******


 **** independent sources

     name         node1        node2      dc volt    ac mag    ac phase    type
  vbs  3                 0                    1.0000     0.         0.      dc   
  vds  2                 0                  100.0000m    0.         0.      dc   
  vgs  1                 0                    3.0000     0.         0.      dc   


 **** mosfets
  
  
                             
 element name        0:m1    
 drain               0:2     
 gate                0:1     
 source              0:0     
 bulk                0:3     
 model               0:cmosn 
 w eff               9.5330u 
 l eff               1.5000u 
 rd eff              0.      
 rs eff              0.      
 cdsat              10.0000f 
 cssat              10.0000f 
 capbd               0.      
 capbs               0.      
 temp               25.0000  
 aic                         
 m                   1.0000  
 w drawn            10.0000u 
 l drawn             1.5000u 
  
  
1****** HSPICE -- I-2013.12-SP2-1 32-BIT (Jun 10 2014) RHEL32 ******            
 ******  
 mosfet i-v curve

 ****** element node table
                                                                                      
 0                vbs              vds              vgs              m1:s             
 1                vgs              m1:g                                               
 2                vds              m1:d                                               
 3                vbs              m1:b                                               
 *****************************************************************
 ******  option summary
 ******
 runlvl  = 3         bypass  = 2         
 ******  
 mosfet i-v curve

 ****** dc transfer curves tnom=  25.000 temp=  25.000 ******

   *** source        0:vbs =    0.            ***

x

        volt    voltage      current 1  
                     1           m1     
    0.            0.         312.8106f  
    5.00000m      5.0000m    324.4343f  
   10.00000m     10.0000m    337.2664f  
   15.00000m     15.0000m    351.4325f  
   20.00000m     20.0000m    367.0713f  
   25.00000m     25.0000m    384.3359f  
   30.00000m     30.0000m    403.3953f  
   35.00000m     35.0000m    424.4361f  
   40.00000m     40.0000m    447.6642f  
   45.00000m     45.0000m    473.3072f  
   50.00000m     50.0000m    501.6159f  
   55.00000m     55.0000m    532.8676f  
   60.00000m     60.0000m    567.3682f  
   65.00000m     65.0000m    605.4554f  
   70.00000m     70.0000m    647.5021f  
   75.00000m     75.0000m    693.9200f  
   80.00000m     80.0000m    745.1634f  
   85.00000m     85.0000m    801.7340f  
   90.00000m     90.0000m    864.1857f  
   95.00000m     95.0000m    933.1297f  
  100.00000m    100.0000m      1.0092p  
  105.00000m    105.0000m      1.0933p  
  110.00000m    110.0000m      1.1860p  
  115.00000m    115.0000m      1.2884p  
  120.00000m    120.0000m      1.4015p  
  125.00000m    125.0000m      1.5263p  
  130.00000m    130.0000m      1.6640p  
  135.00000m    135.0000m      1.8161p  
  140.00000m    140.0000m      1.9841p  
  145.00000m    145.0000m      2.1694p  
  150.00000m    150.0000m      2.3741p  
  155.00000m    155.0000m      2.6000p  
  160.00000m    160.0000m      2.8494p  
  165.00000m    165.0000m      3.1247p  
  170.00000m    170.0000m      3.4286p  
  175.00000m    175.0000m      3.7642p  
  180.00000m    180.0000m      4.1346p  
  185.00000m    185.0000m      4.5435p  
  190.00000m    190.0000m      4.9949p  
  195.00000m    195.0000m      5.4933p  
  200.00000m    200.0000m      6.0435p  
  205.00000m    205.0000m      6.6509p  
  210.00000m    210.0000m      7.3214p  
  215.00000m    215.0000m      8.0616p  
  220.00000m    220.0000m      8.8788p  
  225.00000m    225.0000m      9.7810p  
  230.00000m    230.0000m     10.7769p  
  235.00000m    235.0000m     11.8763p  
  240.00000m    240.0000m     13.0901p  
  245.00000m    245.0000m     14.4300p  
  250.00000m    250.0000m     15.9093p  
  255.00000m    255.0000m     17.5423p  
  260.00000m    260.0000m     19.3450p  
  265.00000m    265.0000m     21.3352p  
  270.00000m    270.0000m     23.5323p  
  275.00000m    275.0000m     25.9578p  
  280.00000m    280.0000m     28.6355p  
  285.00000m    285.0000m     31.5915p  
  290.00000m    290.0000m     34.8548p  
  295.00000m    295.0000m     38.4574p  
  300.00000m    300.0000m     42.4345p  
  305.00000m    305.0000m     46.8250p  
  310.00000m    310.0000m     51.6720p  
  315.00000m    315.0000m     57.0229p  
  320.00000m    320.0000m     62.9300p  
  325.00000m    325.0000m     69.4512p  
  330.00000m    330.0000m     76.6504p  
  335.00000m    335.0000m     84.5980p  
  340.00000m    340.0000m     93.3718p  
  345.00000m    345.0000m    103.0578p  
  350.00000m    350.0000m    113.7506p  
  355.00000m    355.0000m    125.5551p  
  360.00000m    360.0000m    138.5868p  
  365.00000m    365.0000m    152.9732p  
  370.00000m    370.0000m    168.8553p  
  375.00000m    375.0000m    186.3884p  
  380.00000m    380.0000m    205.7442p  
  385.00000m    385.0000m    227.1123p  
  390.00000m    390.0000m    250.7017p  
  395.00000m    395.0000m    276.7435p  
  400.00000m    400.0000m    305.4925p  
  405.00000m    405.0000m    337.2303p  
  410.00000m    410.0000m    372.2675p  
  415.00000m    415.0000m    410.9471p  
  420.00000m    420.0000m    453.6478p  
  425.00000m    425.0000m    500.7876p  
  430.00000m    430.0000m    552.8280p  
  435.00000m    435.0000m    610.2785p  
  440.00000m    440.0000m    673.7015p  
  445.00000m    445.0000m    743.7178p  
  450.00000m    450.0000m    821.0130p  
  455.00000m    455.0000m    906.3437p  
  460.00000m    460.0000m      1.0005n  
  465.00000m    465.0000m      1.1045n  
  470.00000m    470.0000m      1.2193n  
  475.00000m    475.0000m      1.3461n  
  480.00000m    480.0000m      1.4860n  
  485.00000m    485.0000m      1.6405n  
  490.00000m    490.0000m      1.8110n  
  495.00000m    495.0000m      1.9992n  
  500.00000m    500.0000m      2.2071n  
  505.00000m    505.0000m      2.4365n  
  510.00000m    510.0000m      2.6897n  
  515.00000m    515.0000m      2.9693n  
  520.00000m    520.0000m      3.2780n  
  525.00000m    525.0000m      3.6188n  
  530.00000m    530.0000m      3.9950n  
  535.00000m    535.0000m      4.4102n  
  540.00000m    540.0000m      4.8687n  
  545.00000m    545.0000m      5.3748n  
  550.00000m    550.0000m      5.9336n  
  555.00000m    555.0000m      6.5504n  
  560.00000m    560.0000m      7.2314n  
  565.00000m    565.0000m      7.9831n  
  570.00000m    570.0000m      8.8130n  
  575.00000m    575.0000m      9.7292n  
  580.00000m    580.0000m     10.7406n  
  585.00000m    585.0000m     11.8571n  
  590.00000m    590.0000m     13.0898n  
  595.00000m    595.0000m     14.4505n  
  600.00000m    600.0000m     15.9528n  
  605.00000m    605.0000m     17.6112n  
  610.00000m    610.0000m     19.4420n  
  615.00000m    615.0000m     21.4631n  
  620.00000m    620.0000m     23.6944n  
  625.00000m    625.0000m     26.1576n  
  630.00000m    630.0000m     28.8769n  
  635.00000m    635.0000m     31.8789n  
  640.00000m    640.0000m     35.1930n  
  645.00000m    645.0000m     38.8516n  
  650.00000m    650.0000m     42.8905n  
  655.00000m    655.0000m     47.3494n  
  660.00000m    660.0000m     52.2717n  
  665.00000m    665.0000m     57.7058n  
  670.00000m    670.0000m     63.7049n  
  675.00000m    675.0000m     70.3275n  
  680.00000m    680.0000m     77.6387n  
  685.00000m    685.0000m     85.7099n  
  690.00000m    690.0000m     94.6202n  
  695.00000m    695.0000m    104.4567n  
  700.00000m    700.0000m    115.3159n  
  705.00000m    705.0000m    127.3040n  
  710.00000m    710.0000m    140.5384n  
  715.00000m    715.0000m    155.1486n  
  720.00000m    720.0000m    171.2776n  
  725.00000m    725.0000m    189.0834n  
  730.00000m    730.0000m    208.7403n  
  735.00000m    735.0000m    230.4407n  
  740.00000m    740.0000m    254.3970n  
  745.00000m    745.0000m    280.8438n  
  750.00000m    750.0000m    310.0400n  
  755.00000m    755.0000m    342.2714n  
  760.00000m    760.0000m    377.8536n  
  765.00000m    765.0000m    417.1348n  
  770.00000m    770.0000m    460.4996n  
  775.00000m    775.0000m    508.3726n  
  780.00000m    780.0000m    561.2224n  
  785.00000m    785.0000m    619.5665n  
  790.00000m    790.0000m    683.9759n  
  795.00000m    795.0000m    755.0812n  
  800.00000m    800.0000m    833.5786n  
  805.00000m    805.0000m    984.1176n  
  810.00000m    810.0000m      1.1717u  
  815.00000m    815.0000m      1.3753u  
  820.00000m    820.0000m      1.5948u  
  825.00000m    825.0000m      1.8301u  
  830.00000m    830.0000m      2.0811u  
  835.00000m    835.0000m      2.3478u  
  840.00000m    840.0000m      2.6301u  
  845.00000m    845.0000m      2.9278u  
  850.00000m    850.0000m      3.2410u  
  855.00000m    855.0000m      3.5694u  
  860.00000m    860.0000m      3.9131u  
  865.00000m    865.0000m      4.2720u  
  870.00000m    870.0000m      4.6460u  
  875.00000m    875.0000m      5.0273u  
  880.00000m    880.0000m      5.4083u  
  885.00000m    885.0000m      5.7889u  
  890.00000m    890.0000m      6.1691u  
  895.00000m    895.0000m      6.5490u  
  900.00000m    900.0000m      6.9285u  
  905.00000m    905.0000m      7.3076u  
  910.00000m    910.0000m      7.6864u  
  915.00000m    915.0000m      8.0648u  
  920.00000m    920.0000m      8.4428u  
  925.00000m    925.0000m      8.8204u  
  930.00000m    930.0000m      9.1977u  
  935.00000m    935.0000m      9.5747u  
  940.00000m    940.0000m      9.9512u  
  945.00000m    945.0000m     10.3274u  
  950.00000m    950.0000m     10.7033u  
  955.00000m    955.0000m     11.0788u  
  960.00000m    960.0000m     11.4539u  
  965.00000m    965.0000m     11.8286u  
  970.00000m    970.0000m     12.2030u  
  975.00000m    975.0000m     12.5771u  
  980.00000m    980.0000m     12.9507u  
  985.00000m    985.0000m     13.3240u  
  990.00000m    990.0000m     13.6970u  
  995.00000m    995.0000m     14.0696u  
    1.00000       1.0000      14.4418u  
    1.00500       1.0050      14.8137u  
    1.01000       1.0100      15.1852u  
    1.01500       1.0150      15.5564u  
    1.02000       1.0200      15.9272u  
    1.02500       1.0250      16.2977u  
    1.03000       1.0300      16.6678u  
    1.03500       1.0350      17.0375u  
    1.04000       1.0400      17.4069u  
    1.04500       1.0450      17.7759u  
    1.05000       1.0500      18.1446u  
    1.05500       1.0550      18.5130u  
    1.06000       1.0600      18.8810u  
    1.06500       1.0650      19.2486u  
    1.07000       1.0700      19.6159u  
    1.07500       1.0750      19.9828u  
    1.08000       1.0800      20.3494u  
    1.08500       1.0850      20.7156u  
    1.09000       1.0900      21.0815u  
    1.09500       1.0950      21.4470u  
    1.10000       1.1000      21.8122u  
    1.10500       1.1050      22.1771u  
    1.11000       1.1100      22.5416u  
    1.11500       1.1150      22.9057u  
    1.12000       1.1200      23.2695u  
    1.12500       1.1250      23.6330u  
    1.13000       1.1300      23.9961u  
    1.13500       1.1350      24.3589u  
    1.14000       1.1400      24.7213u  
    1.14500       1.1450      25.0834u  
    1.15000       1.1500      25.4451u  
    1.15500       1.1550      25.8065u  
    1.16000       1.1600      26.1676u  
    1.16500       1.1650      26.5283u  
    1.17000       1.1700      26.8886u  
    1.17500       1.1750      27.2487u  
    1.18000       1.1800      27.6084u  
    1.18500       1.1850      27.9677u  
    1.19000       1.1900      28.3267u  
    1.19500       1.1950      28.6854u  
    1.20000       1.2000      29.0437u  
    1.20500       1.2050      29.4017u  
    1.21000       1.2100      29.7594u  
    1.21500       1.2150      30.1167u  
    1.22000       1.2200      30.4737u  
    1.22500       1.2250      30.8304u  
    1.23000       1.2300      31.1867u  
    1.23500       1.2350      31.5427u  
    1.24000       1.2400      31.8983u  
    1.24500       1.2450      32.2537u  
    1.25000       1.2500      32.6086u  
    1.25500       1.2550      32.9633u  
    1.26000       1.2600      33.3176u  
    1.26500       1.2650      33.6716u  
    1.27000       1.2700      34.0253u  
    1.27500       1.2750      34.3786u  
    1.28000       1.2800      34.7316u  
    1.28500       1.2850      35.0842u  
    1.29000       1.2900      35.4366u  
    1.29500       1.2950      35.7886u  
    1.30000       1.3000      36.1403u  
    1.30500       1.3050      36.4916u  
    1.31000       1.3100      36.8426u  
    1.31500       1.3150      37.1933u  
    1.32000       1.3200      37.5437u  
    1.32500       1.3250      37.8937u  
    1.33000       1.3300      38.2435u  
    1.33500       1.3350      38.5928u  
    1.34000       1.3400      38.9419u  
    1.34500       1.3450      39.2907u  
    1.35000       1.3500      39.6391u  
    1.35500       1.3550      39.9872u  
    1.36000       1.3600      40.3349u  
    1.36500       1.3650      40.6824u  
    1.37000       1.3700      41.0295u  
    1.37500       1.3750      41.3763u  
    1.38000       1.3800      41.7228u  
    1.38500       1.3850      42.0690u  
    1.39000       1.3900      42.4148u  
    1.39500       1.3950      42.7603u  
    1.40000       1.4000      43.1055u  
    1.40500       1.4050      43.4504u  
    1.41000       1.4100      43.7950u  
    1.41500       1.4150      44.1392u  
    1.42000       1.4200      44.4831u  
    1.42500       1.4250      44.8268u  
    1.43000       1.4300      45.1701u  
    1.43500       1.4350      45.5130u  
    1.44000       1.4400      45.8557u  
    1.44500       1.4450      46.1980u  
    1.45000       1.4500      46.5401u  
    1.45500       1.4550      46.8818u  
    1.46000       1.4600      47.2232u  
    1.46500       1.4650      47.5643u  
    1.47000       1.4700      47.9051u  
    1.47500       1.4750      48.2455u  
    1.48000       1.4800      48.5857u  
    1.48500       1.4850      48.9255u  
    1.49000       1.4900      49.2650u  
    1.49500       1.4950      49.6042u  
    1.50000       1.5000      49.9431u  
    1.50500       1.5050      50.2817u  
    1.51000       1.5100      50.6200u  
    1.51500       1.5150      50.9580u  
    1.52000       1.5200      51.2957u  
    1.52500       1.5250      51.6330u  
    1.53000       1.5300      51.9701u  
    1.53500       1.5350      52.3068u  
    1.54000       1.5400      52.6432u  
    1.54500       1.5450      52.9794u  
    1.55000       1.5500      53.3152u  
    1.55500       1.5550      53.6507u  
    1.56000       1.5600      53.9859u  
    1.56500       1.5650      54.3208u  
    1.57000       1.5700      54.6554u  
    1.57500       1.5750      54.9897u  
    1.58000       1.5800      55.3237u  
    1.58500       1.5850      55.6574u  
    1.59000       1.5900      55.9907u  
    1.59500       1.5950      56.3238u  
    1.60000       1.6000      56.6566u  
    1.60500       1.6050      56.9891u  
    1.61000       1.6100      57.3212u  
    1.61500       1.6150      57.6531u  
    1.62000       1.6200      57.9847u  
    1.62500       1.6250      58.3159u  
    1.63000       1.6300      58.6469u  
    1.63500       1.6350      58.9776u  
    1.64000       1.6400      59.3080u  
    1.64500       1.6450      59.6380u  
    1.65000       1.6500      59.9678u  
    1.65500       1.6550      60.2973u  
    1.66000       1.6600      60.6265u  
    1.66500       1.6650      60.9553u  
    1.67000       1.6700      61.2839u  
    1.67500       1.6750      61.6122u  
    1.68000       1.6800      61.9402u  
    1.68500       1.6850      62.2679u  
    1.69000       1.6900      62.5953u  
    1.69500       1.6950      62.9224u  
    1.70000       1.7000      63.2492u  
    1.70500       1.7050      63.5757u  
    1.71000       1.7100      63.9020u  
    1.71500       1.7150      64.2279u  
    1.72000       1.7200      64.5535u  
    1.72500       1.7250      64.8789u  
    1.73000       1.7300      65.2039u  
    1.73500       1.7350      65.5287u  
    1.74000       1.7400      65.8532u  
    1.74500       1.7450      66.1773u  
    1.75000       1.7500      66.5012u  
    1.75500       1.7550      66.8248u  
    1.76000       1.7600      67.1481u  
    1.76500       1.7650      67.4712u  
    1.77000       1.7700      67.7939u  
    1.77500       1.7750      68.1163u  
    1.78000       1.7800      68.4385u  
    1.78500       1.7850      68.7604u  
    1.79000       1.7900      69.0820u  
    1.79500       1.7950      69.4032u  
    1.80000       1.8000      69.7243u  
    1.80500       1.8050      70.0450u  
    1.81000       1.8100      70.3654u  
    1.81500       1.8150      70.6856u  
    1.82000       1.8200      71.0054u  
    1.82500       1.8250      71.3250u  
    1.83000       1.8300      71.6443u  
    1.83500       1.8350      71.9633u  
    1.84000       1.8400      72.2820u  
    1.84500       1.8450      72.6005u  
    1.85000       1.8500      72.9187u  
    1.85500       1.8550      73.2365u  
    1.86000       1.8600      73.5541u  
    1.86500       1.8650      73.8715u  
    1.87000       1.8700      74.1885u  
    1.87500       1.8750      74.5052u  
    1.88000       1.8800      74.8217u  
    1.88500       1.8850      75.1379u  
    1.89000       1.8900      75.4538u  
    1.89500       1.8950      75.7695u  
    1.90000       1.9000      76.0848u  
    1.90500       1.9050      76.3999u  
    1.91000       1.9100      76.7147u  
    1.91500       1.9150      77.0292u  
    1.92000       1.9200      77.3435u  
    1.92500       1.9250      77.6574u  
    1.93000       1.9300      77.9711u  
    1.93500       1.9350      78.2845u  
    1.94000       1.9400      78.5977u  
    1.94500       1.9450      78.9105u  
    1.95000       1.9500      79.2231u  
    1.95500       1.9550      79.5354u  
    1.96000       1.9600      79.8475u  
    1.96500       1.9650      80.1592u  
    1.97000       1.9700      80.4707u  
    1.97500       1.9750      80.7820u  
    1.98000       1.9800      81.0929u  
    1.98500       1.9850      81.4036u  
    1.99000       1.9900      81.7140u  
    1.99500       1.9950      82.0241u  
    2.00000       2.0000      82.3339u  
    2.00500       2.0050      82.6435u  
    2.01000       2.0100      82.9528u  
    2.01500       2.0150      83.2619u  
    2.02000       2.0200      83.5706u  
    2.02500       2.0250      83.8791u  
    2.03000       2.0300      84.1874u  
    2.03500       2.0350      84.4953u  
    2.04000       2.0400      84.8030u  
    2.04500       2.0450      85.1105u  
    2.05000       2.0500      85.4176u  
    2.05500       2.0550      85.7245u  
    2.06000       2.0600      86.0311u  
    2.06500       2.0650      86.3375u  
    2.07000       2.0700      86.6436u  
    2.07500       2.0750      86.9494u  
    2.08000       2.0800      87.2549u  
    2.08500       2.0850      87.5602u  
    2.09000       2.0900      87.8652u  
    2.09500       2.0950      88.1700u  
    2.10000       2.1000      88.4745u  
    2.10500       2.1050      88.7787u  
    2.11000       2.1100      89.0827u  
    2.11500       2.1150      89.3864u  
    2.12000       2.1200      89.6898u  
    2.12500       2.1250      89.9930u  
    2.13000       2.1300      90.2959u  
    2.13500       2.1350      90.5986u  
    2.14000       2.1400      90.9010u  
    2.14500       2.1450      91.2031u  
    2.15000       2.1500      91.5050u  
    2.15500       2.1550      91.8066u  
    2.16000       2.1600      92.1079u  
    2.16500       2.1650      92.4090u  
    2.17000       2.1700      92.7098u  
    2.17500       2.1750      93.0104u  
    2.18000       2.1800      93.3107u  
    2.18500       2.1850      93.6107u  
    2.19000       2.1900      93.9105u  
    2.19500       2.1950      94.2100u  
    2.20000       2.2000      94.5093u  
    2.20500       2.2050      94.8083u  
    2.21000       2.2100      95.1071u  
    2.21500       2.2150      95.4056u  
    2.22000       2.2200      95.7038u  
    2.22500       2.2250      96.0018u  
    2.23000       2.2300      96.2995u  
    2.23500       2.2350      96.5970u  
    2.24000       2.2400      96.8942u  
    2.24500       2.2450      97.1912u  
    2.25000       2.2500      97.4879u  
    2.25500       2.2550      97.7844u  
    2.26000       2.2600      98.0806u  
    2.26500       2.2650      98.3765u  
    2.27000       2.2700      98.6722u  
    2.27500       2.2750      98.9677u  
    2.28000       2.2800      99.2628u  
    2.28500       2.2850      99.5578u  
    2.29000       2.2900      99.8525u  
    2.29500       2.2950     100.1469u  
    2.30000       2.3000     100.4411u  
    2.30500       2.3050     100.7350u  
    2.31000       2.3100     101.0287u  
    2.31500       2.3150     101.3221u  
    2.32000       2.3200     101.6153u  
    2.32500       2.3250     101.9082u  
    2.33000       2.3300     102.2009u  
    2.33500       2.3350     102.4933u  
    2.34000       2.3400     102.7855u  
    2.34500       2.3450     103.0775u  
    2.35000       2.3500     103.3691u  
    2.35500       2.3550     103.6606u  
    2.36000       2.3600     103.9518u  
    2.36500       2.3650     104.2427u  
    2.37000       2.3700     104.5334u  
    2.37500       2.3750     104.8239u  
    2.38000       2.3800     105.1141u  
    2.38500       2.3850     105.4040u  
    2.39000       2.3900     105.6937u  
    2.39500       2.3950     105.9832u  
    2.40000       2.4000     106.2724u  
    2.40500       2.4050     106.5614u  
    2.41000       2.4100     106.8501u  
    2.41500       2.4150     107.1386u  
    2.42000       2.4200     107.4269u  
    2.42500       2.4250     107.7149u  
    2.43000       2.4300     108.0026u  
    2.43500       2.4350     108.2901u  
    2.44000       2.4400     108.5774u  
    2.44500       2.4450     108.8644u  
    2.45000       2.4500     109.1512u  
    2.45500       2.4550     109.4378u  
    2.46000       2.4600     109.7241u  
    2.46500       2.4650     110.0101u  
    2.47000       2.4700     110.2960u  
    2.47500       2.4750     110.5815u  
    2.48000       2.4800     110.8669u  
    2.48500       2.4850     111.1520u  
    2.49000       2.4900     111.4369u  
    2.49500       2.4950     111.7215u  
    2.50000       2.5000     112.0059u  
y
 ******  
 mosfet i-v curve

 ****** dc transfer curves tnom=  25.000 temp=  25.000 ******

   *** source        0:vbs =   -1.0000        ***

x

        volt    voltage      current 1  
                     1           m1     
    0.            0.           1.2112p  
    5.00000m      5.0000m      1.2113p  
   10.00000m     10.0000m      1.2113p  
   15.00000m     15.0000m      1.2113p  
   20.00000m     20.0000m      1.2114p  
   25.00000m     25.0000m      1.2114p  
   30.00000m     30.0000m      1.2115p  
   35.00000m     35.0000m      1.2115p  
   40.00000m     40.0000m      1.2116p  
   45.00000m     45.0000m      1.2116p  
   50.00000m     50.0000m      1.2117p  
   55.00000m     55.0000m      1.2118p  
   60.00000m     60.0000m      1.2119p  
   65.00000m     65.0000m      1.2120p  
   70.00000m     70.0000m      1.2121p  
   75.00000m     75.0000m      1.2122p  
   80.00000m     80.0000m      1.2123p  
   85.00000m     85.0000m      1.2125p  
   90.00000m     90.0000m      1.2126p  
   95.00000m     95.0000m      1.2128p  
  100.00000m    100.0000m      1.2130p  
  105.00000m    105.0000m      1.2132p  
  110.00000m    110.0000m      1.2135p  
  115.00000m    115.0000m      1.2138p  
  120.00000m    120.0000m      1.2141p  
  125.00000m    125.0000m      1.2144p  
  130.00000m    130.0000m      1.2148p  
  135.00000m    135.0000m      1.2152p  
  140.00000m    140.0000m      1.2157p  
  145.00000m    145.0000m      1.2162p  
  150.00000m    150.0000m      1.2167p  
  155.00000m    155.0000m      1.2174p  
  160.00000m    160.0000m      1.2181p  
  165.00000m    165.0000m      1.2189p  
  170.00000m    170.0000m      1.2197p  
  175.00000m    175.0000m      1.2207p  
  180.00000m    180.0000m      1.2218p  
  185.00000m    185.0000m      1.2230p  
  190.00000m    190.0000m      1.2243p  
  195.00000m    195.0000m      1.2258p  
  200.00000m    200.0000m      1.2274p  
  205.00000m    205.0000m      1.2293p  
  210.00000m    210.0000m      1.2313p  
  215.00000m    215.0000m      1.2335p  
  220.00000m    220.0000m      1.2360p  
  225.00000m    225.0000m      1.2388p  
  230.00000m    230.0000m      1.2419p  
  235.00000m    235.0000m      1.2453p  
  240.00000m    240.0000m      1.2491p  
  245.00000m    245.0000m      1.2533p  
  250.00000m    250.0000m      1.2580p  
  255.00000m    255.0000m      1.2632p  
  260.00000m    260.0000m      1.2690p  
  265.00000m    265.0000m      1.2754p  
  270.00000m    270.0000m      1.2825p  
  275.00000m    275.0000m      1.2905p  
  280.00000m    280.0000m      1.2993p  
  285.00000m    285.0000m      1.3091p  
  290.00000m    290.0000m      1.3199p  
  295.00000m    295.0000m      1.3320p  
  300.00000m    300.0000m      1.3454p  
  305.00000m    305.0000m      1.3603p  
  310.00000m    310.0000m      1.3768p  
  315.00000m    315.0000m      1.3952p  
  320.00000m    320.0000m      1.4156p  
  325.00000m    325.0000m      1.4382p  
  330.00000m    330.0000m      1.4634p  
  335.00000m    335.0000m      1.4914p  
  340.00000m    340.0000m      1.5224p  
  345.00000m    345.0000m      1.5569p  
  350.00000m    350.0000m      1.5953p  
  355.00000m    355.0000m      1.6378p  
  360.00000m    360.0000m      1.6851p  
  365.00000m    365.0000m      1.7377p  
  370.00000m    370.0000m      1.7960p  
  375.00000m    375.0000m      1.8608p  
  380.00000m    380.0000m      1.9328p  
  385.00000m    385.0000m      2.0128p  
  390.00000m    390.0000m      2.1016p  
  395.00000m    395.0000m      2.2002p  
  400.00000m    400.0000m      2.3098p  
  405.00000m    405.0000m      2.4316p  
  410.00000m    410.0000m      2.5668p  
  415.00000m    415.0000m      2.7170p  
  420.00000m    420.0000m      2.8838p  
  425.00000m    425.0000m      3.0692p  
  430.00000m    430.0000m      3.2750p  
  435.00000m    435.0000m      3.5037p  
  440.00000m    440.0000m      3.7577p  
  445.00000m    445.0000m      4.0398p  
  450.00000m    450.0000m      4.3532p  
  455.00000m    455.0000m      4.7013p  
  460.00000m    460.0000m      5.0879p  
  465.00000m    465.0000m      5.5174p  
  470.00000m    470.0000m      5.9945p  
  475.00000m    475.0000m      6.5244p  
  480.00000m    480.0000m      7.1131p  
  485.00000m    485.0000m      7.7669p  
  490.00000m    490.0000m      8.4932p  
  495.00000m    495.0000m      9.3000p  
  500.00000m    500.0000m     10.1961p  
  505.00000m    505.0000m     11.1915p  
  510.00000m    510.0000m     12.2972p  
  515.00000m    515.0000m     13.5254p  
  520.00000m    520.0000m     14.8896p  
  525.00000m    525.0000m     16.4050p  
  530.00000m    530.0000m     18.0882p  
  535.00000m    535.0000m     19.9579p  
  540.00000m    540.0000m     22.0348p  
  545.00000m    545.0000m     24.3417p  
  550.00000m    550.0000m     26.9042p  
  555.00000m    555.0000m     29.7506p  
  560.00000m    560.0000m     32.9123p  
  565.00000m    565.0000m     36.4243p  
  570.00000m    570.0000m     40.3254p  
  575.00000m    575.0000m     44.6586p  
  580.00000m    580.0000m     49.4719p  
  585.00000m    585.0000m     54.8184p  
  590.00000m    590.0000m     60.7572p  
  595.00000m    595.0000m     67.3540p  
  600.00000m    600.0000m     74.6816p  
  605.00000m    605.0000m     82.8209p  
  610.00000m    610.0000m     91.8619p  
  615.00000m    615.0000m    101.9046p  
  620.00000m    620.0000m    113.0598p  
  625.00000m    625.0000m    125.4508p  
  630.00000m    630.0000m    139.2146p  
  635.00000m    635.0000m    154.5031p  
  640.00000m    640.0000m    171.4854p  
  645.00000m    645.0000m    190.3490p  
  650.00000m    650.0000m    211.3024p  
  655.00000m    655.0000m    234.5771p  
  660.00000m    660.0000m    260.4302p  
  665.00000m    665.0000m    289.1475p  
  670.00000m    670.0000m    321.0462p  
  675.00000m    675.0000m    356.4787p  
  680.00000m    680.0000m    395.8366p  
  685.00000m    685.0000m    439.5546p  
  690.00000m    690.0000m    488.1159p  
  695.00000m    695.0000m    542.0571p  
  700.00000m    700.0000m    601.9740p  
  705.00000m    705.0000m    668.5287p  
  710.00000m    710.0000m    742.4566p  
  715.00000m    715.0000m    824.5746p  
  720.00000m    720.0000m    915.7898p  
  725.00000m    725.0000m      1.0171n  
  730.00000m    730.0000m      1.1297n  
  735.00000m    735.0000m      1.2547n  
  740.00000m    740.0000m      1.3935n  
  745.00000m    745.0000m      1.5478n  
  750.00000m    750.0000m      1.7191n  
  755.00000m    755.0000m      1.9094n  
  760.00000m    760.0000m      2.1208n  
  765.00000m    765.0000m      2.3556n  
  770.00000m    770.0000m      2.6165n  
  775.00000m    775.0000m      2.9062n  
  780.00000m    780.0000m      3.2280n  
  785.00000m    785.0000m      3.5855n  
  790.00000m    790.0000m      3.9826n  
  795.00000m    795.0000m      4.4237n  
  800.00000m    800.0000m      4.9136n  
  805.00000m    805.0000m      5.4578n  
  810.00000m    810.0000m      6.0623n  
  815.00000m    815.0000m      6.7338n  
  820.00000m    820.0000m      7.4797n  
  825.00000m    825.0000m      8.3081n  
  830.00000m    830.0000m      9.2284n  
  835.00000m    835.0000m     10.2506n  
  840.00000m    840.0000m     11.3861n  
  845.00000m    845.0000m     12.6474n  
  850.00000m    850.0000m     14.0484n  
  855.00000m    855.0000m     15.6045n  
  860.00000m    860.0000m     17.3331n  
  865.00000m    865.0000m     19.2532n  
  870.00000m    870.0000m     21.3860n  
  875.00000m    875.0000m     23.7551n  
  880.00000m    880.0000m     26.3867n  
  885.00000m    885.0000m     29.3098n  
  890.00000m    890.0000m     32.5567n  
  895.00000m    895.0000m     36.1633n  
  900.00000m    900.0000m     40.1695n  
  905.00000m    905.0000m     44.6194n  
  910.00000m    910.0000m     49.5624n  
  915.00000m    915.0000m     55.0530n  
  920.00000m    920.0000m     61.1518n  
  925.00000m    925.0000m     67.9263n  
  930.00000m    930.0000m     75.4513n  
  935.00000m    935.0000m     83.8099n  
  940.00000m    940.0000m     93.0946n  
  945.00000m    945.0000m    103.4078n  
  950.00000m    950.0000m    114.8636n  
  955.00000m    955.0000m    127.5884n  
  960.00000m    960.0000m    141.7230n  
  965.00000m    965.0000m    157.4235n  
  970.00000m    970.0000m    174.8633n  
  975.00000m    975.0000m    194.2352n  
  980.00000m    980.0000m    215.7531n  
  985.00000m    985.0000m    239.6549n  
  990.00000m    990.0000m    266.2047n  
  995.00000m    995.0000m    295.6957n  
    1.00000       1.0000     328.4538n  
    1.00500       1.0050     364.8410n  
    1.01000       1.0100     405.2593n  
    1.01500       1.0150     450.1552n  
    1.02000       1.0200     500.0250n  
    1.02500       1.0250     555.4194n  
    1.03000       1.0300     616.9507n  
    1.03500       1.0350     685.2986n  
    1.04000       1.0400     761.2184n  
    1.04500       1.0450     893.0613n  
    1.05000       1.0500       1.0771u  
    1.05500       1.0550       1.2779u  
    1.06000       1.0600       1.4955u  
    1.06500       1.0650       1.7298u  
    1.07000       1.0700       1.9806u  
    1.07500       1.0750       2.2479u  
    1.08000       1.0800       2.5316u  
    1.08500       1.0850       2.8316u  
    1.09000       1.0900       3.1478u  
    1.09500       1.0950       3.4801u  
    1.10000       1.1000       3.8285u  
    1.10500       1.1050       4.1928u  
    1.11000       1.1100       4.5717u  
    1.11500       1.1150       4.9533u  
    1.12000       1.1200       5.3344u  
    1.12500       1.1250       5.7152u  
    1.13000       1.1300       6.0956u  
    1.13500       1.1350       6.4756u  
    1.14000       1.1400       6.8553u  
    1.14500       1.1450       7.2346u  
    1.15000       1.1500       7.6135u  
    1.15500       1.1550       7.9921u  
    1.16000       1.1600       8.3703u  
    1.16500       1.1650       8.7481u  
    1.17000       1.1700       9.1256u  
    1.17500       1.1750       9.5027u  
    1.18000       1.1800       9.8795u  
    1.18500       1.1850      10.2558u  
    1.19000       1.1900      10.6319u  
    1.19500       1.1950      11.0075u  
    1.20000       1.2000      11.3828u  
    1.20500       1.2050      11.7577u  
    1.21000       1.2100      12.1323u  
    1.21500       1.2150      12.5065u  
    1.22000       1.2200      12.8803u  
    1.22500       1.2250      13.2538u  
    1.23000       1.2300      13.6270u  
    1.23500       1.2350      13.9997u  
    1.24000       1.2400      14.3721u  
    1.24500       1.2450      14.7442u  
    1.25000       1.2500      15.1159u  
    1.25500       1.2550      15.4872u  
    1.26000       1.2600      15.8582u  
    1.26500       1.2650      16.2288u  
    1.27000       1.2700      16.5991u  
    1.27500       1.2750      16.9690u  
    1.28000       1.2800      17.3386u  
    1.28500       1.2850      17.7078u  
    1.29000       1.2900      18.0767u  
    1.29500       1.2950      18.4452u  
    1.30000       1.3000      18.8133u  
    1.30500       1.3050      19.1811u  
    1.31000       1.3100      19.5486u  
    1.31500       1.3150      19.9157u  
    1.32000       1.3200      20.2824u  
    1.32500       1.3250      20.6488u  
    1.33000       1.3300      21.0149u  
    1.33500       1.3350      21.3806u  
    1.34000       1.3400      21.7459u  
    1.34500       1.3450      22.1109u  
    1.35000       1.3500      22.4756u  
    1.35500       1.3550      22.8399u  
    1.36000       1.3600      23.2039u  
    1.36500       1.3650      23.5675u  
    1.37000       1.3700      23.9308u  
    1.37500       1.3750      24.2937u  
    1.38000       1.3800      24.6563u  
    1.38500       1.3850      25.0185u  
    1.39000       1.3900      25.3804u  
    1.39500       1.3950      25.7420u  
    1.40000       1.4000      26.1032u  
    1.40500       1.4050      26.4641u  
    1.41000       1.4100      26.8246u  
    1.41500       1.4150      27.1848u  
    1.42000       1.4200      27.5447u  
    1.42500       1.4250      27.9042u  
    1.43000       1.4300      28.2634u  
    1.43500       1.4350      28.6222u  
    1.44000       1.4400      28.9807u  
    1.44500       1.4450      29.3389u  
    1.45000       1.4500      29.6967u  
    1.45500       1.4550      30.0542u  
    1.46000       1.4600      30.4113u  
    1.46500       1.4650      30.7681u  
    1.47000       1.4700      31.1246u  
    1.47500       1.4750      31.4808u  
    1.48000       1.4800      31.8366u  
    1.48500       1.4850      32.1921u  
    1.49000       1.4900      32.5472u  
    1.49500       1.4950      32.9020u  
    1.50000       1.5000      33.2565u  
    1.50500       1.5050      33.6106u  
    1.51000       1.5100      33.9644u  
    1.51500       1.5150      34.3179u  
    1.52000       1.5200      34.6711u  
    1.52500       1.5250      35.0239u  
    1.53000       1.5300      35.3764u  
    1.53500       1.5350      35.7286u  
    1.54000       1.5400      36.0804u  
    1.54500       1.5450      36.4319u  
    1.55000       1.5500      36.7831u  
    1.55500       1.5550      37.1339u  
    1.56000       1.5600      37.4844u  
    1.56500       1.5650      37.8346u  
    1.57000       1.5700      38.1845u  
    1.57500       1.5750      38.5340u  
    1.58000       1.5800      38.8833u  
    1.58500       1.5850      39.2322u  
    1.59000       1.5900      39.5807u  
    1.59500       1.5950      39.9290u  
    1.60000       1.6000      40.2769u  
    1.60500       1.6050      40.6245u  
    1.61000       1.6100      40.9718u  
    1.61500       1.6150      41.3187u  
    1.62000       1.6200      41.6654u  
    1.62500       1.6250      42.0117u  
    1.63000       1.6300      42.3577u  
    1.63500       1.6350      42.7033u  
    1.64000       1.6400      43.0487u  
    1.64500       1.6450      43.3937u  
    1.65000       1.6500      43.7384u  
    1.65500       1.6550      44.0828u  
    1.66000       1.6600      44.4269u  
    1.66500       1.6650      44.7707u  
    1.67000       1.6700      45.1141u  
    1.67500       1.6750      45.4572u  
    1.68000       1.6800      45.8001u  
    1.68500       1.6850      46.1425u  
    1.69000       1.6900      46.4847u  
    1.69500       1.6950      46.8266u  
    1.70000       1.7000      47.1681u  
    1.70500       1.7050      47.5094u  
    1.71000       1.7100      47.8503u  
    1.71500       1.7150      48.1909u  
    1.72000       1.7200      48.5312u  
    1.72500       1.7250      48.8712u  
    1.73000       1.7300      49.2109u  
    1.73500       1.7350      49.5502u  
    1.74000       1.7400      49.8893u  
    1.74500       1.7450      50.2280u  
    1.75000       1.7500      50.5664u  
    1.75500       1.7550      50.9045u  
    1.76000       1.7600      51.2424u  
    1.76500       1.7650      51.5799u  
    1.77000       1.7700      51.9170u  
    1.77500       1.7750      52.2539u  
    1.78000       1.7800      52.5905u  
    1.78500       1.7850      52.9268u  
    1.79000       1.7900      53.2627u  
    1.79500       1.7950      53.5984u  
    1.80000       1.8000      53.9337u  
    1.80500       1.8050      54.2688u  
    1.81000       1.8100      54.6035u  
    1.81500       1.8150      54.9379u  
    1.82000       1.8200      55.2721u  
    1.82500       1.8250      55.6059u  
    1.83000       1.8300      55.9394u  
    1.83500       1.8350      56.2726u  
    1.84000       1.8400      56.6056u  
    1.84500       1.8450      56.9382u  
    1.85000       1.8500      57.2705u  
    1.85500       1.8550      57.6025u  
    1.86000       1.8600      57.9342u  
    1.86500       1.8650      58.2656u  
    1.87000       1.8700      58.5967u  
    1.87500       1.8750      58.9275u  
    1.88000       1.8800      59.2580u  
    1.88500       1.8850      59.5882u  
    1.89000       1.8900      59.9182u  
    1.89500       1.8950      60.2478u  
    1.90000       1.9000      60.5771u  
    1.90500       1.9050      60.9061u  
    1.91000       1.9100      61.2348u  
    1.91500       1.9150      61.5633u  
    1.92000       1.9200      61.8914u  
    1.92500       1.9250      62.2192u  
    1.93000       1.9300      62.5468u  
    1.93500       1.9350      62.8740u  
    1.94000       1.9400      63.2009u  
    1.94500       1.9450      63.5276u  
    1.95000       1.9500      63.8540u  
    1.95500       1.9550      64.1800u  
    1.96000       1.9600      64.5058u  
    1.96500       1.9650      64.8313u  
    1.97000       1.9700      65.1565u  
    1.97500       1.9750      65.4814u  
    1.98000       1.9800      65.8060u  
    1.98500       1.9850      66.1303u  
    1.99000       1.9900      66.4543u  
    1.99500       1.9950      66.7780u  
    2.00000       2.0000      67.1015u  
    2.00500       2.0050      67.4246u  
    2.01000       2.0100      67.7475u  
    2.01500       2.0150      68.0701u  
    2.02000       2.0200      68.3924u  
    2.02500       2.0250      68.7144u  
    2.03000       2.0300      69.0361u  
    2.03500       2.0350      69.3575u  
    2.04000       2.0400      69.6787u  
    2.04500       2.0450      69.9995u  
    2.05000       2.0500      70.3201u  
    2.05500       2.0550      70.6404u  
    2.06000       2.0600      70.9604u  
    2.06500       2.0650      71.2801u  
    2.07000       2.0700      71.5995u  
    2.07500       2.0750      71.9186u  
    2.08000       2.0800      72.2375u  
    2.08500       2.0850      72.5561u  
    2.09000       2.0900      72.8744u  
    2.09500       2.0950      73.1924u  
    2.10000       2.1000      73.5101u  
    2.10500       2.1050      73.8275u  
    2.11000       2.1100      74.1447u  
    2.11500       2.1150      74.4616u  
    2.12000       2.1200      74.7782u  
    2.12500       2.1250      75.0945u  
    2.13000       2.1300      75.4106u  
    2.13500       2.1350      75.7263u  
    2.14000       2.1400      76.0418u  
    2.14500       2.1450      76.3570u  
    2.15000       2.1500      76.6719u  
    2.15500       2.1550      76.9866u  
    2.16000       2.1600      77.3010u  
    2.16500       2.1650      77.6151u  
    2.17000       2.1700      77.9289u  
    2.17500       2.1750      78.2424u  
    2.18000       2.1800      78.5557u  
    2.18500       2.1850      78.8687u  
    2.19000       2.1900      79.1814u  
    2.19500       2.1950      79.4938u  
    2.20000       2.2000      79.8060u  
    2.20500       2.2050      80.1179u  
    2.21000       2.2100      80.4295u  
    2.21500       2.2150      80.7408u  
    2.22000       2.2200      81.0519u  
    2.22500       2.2250      81.3627u  
    2.23000       2.2300      81.6732u  
    2.23500       2.2350      81.9834u  
    2.24000       2.2400      82.2934u  
    2.24500       2.2450      82.6031u  
    2.25000       2.2500      82.9126u  
    2.25500       2.2550      83.2217u  
    2.26000       2.2600      83.5306u  
    2.26500       2.2650      83.8392u  
    2.27000       2.2700      84.1476u  
    2.27500       2.2750      84.4557u  
    2.28000       2.2800      84.7635u  
    2.28500       2.2850      85.0710u  
    2.29000       2.2900      85.3783u  
    2.29500       2.2950      85.6853u  
    2.30000       2.3000      85.9921u  
    2.30500       2.3050      86.2985u  
    2.31000       2.3100      86.6047u  
    2.31500       2.3150      86.9107u  
    2.32000       2.3200      87.2164u  
    2.32500       2.3250      87.5218u  
    2.33000       2.3300      87.8269u  
    2.33500       2.3350      88.1318u  
    2.34000       2.3400      88.4364u  
    2.34500       2.3450      88.7408u  
    2.35000       2.3500      89.0448u  
    2.35500       2.3550      89.3487u  
    2.36000       2.3600      89.6522u  
    2.36500       2.3650      89.9555u  
    2.37000       2.3700      90.2585u  
    2.37500       2.3750      90.5613u  
    2.38000       2.3800      90.8638u  
    2.38500       2.3850      91.1661u  
    2.39000       2.3900      91.4680u  
    2.39500       2.3950      91.7698u  
    2.40000       2.4000      92.0712u  
    2.40500       2.4050      92.3724u  
    2.41000       2.4100      92.6734u  
    2.41500       2.4150      92.9740u  
    2.42000       2.4200      93.2745u  
    2.42500       2.4250      93.5746u  
    2.43000       2.4300      93.8745u  
    2.43500       2.4350      94.1742u  
    2.44000       2.4400      94.4736u  
    2.44500       2.4450      94.7727u  
    2.45000       2.4500      95.0716u  
    2.45500       2.4550      95.3702u  
    2.46000       2.4600      95.6685u  
    2.46500       2.4650      95.9666u  
    2.47000       2.4700      96.2645u  
    2.47500       2.4750      96.5621u  
    2.48000       2.4800      96.8594u  
    2.48500       2.4850      97.1565u  
    2.49000       2.4900      97.4533u  
    2.49500       2.4950      97.7499u  
    2.50000       2.5000      98.0462u  
y

          ***** job concluded
1****** HSPICE -- I-2013.12-SP2-1 32-BIT (Jun 10 2014) RHEL32 ******            
 ******  
 mosfet i-v curve

 ****** job statistics summary tnom=  25.000 temp=  25.000 ******
  
  
 ******  Machine Information  ******
 CPU:
 model name	: Intel(R) Xeon(R) CPU           E5603  @ 1.60GHz
 cpu MHz	: 1596.013
  
 OS:
 Linux version 2.6.32-573.12.1.el6.x86_64 (mockbuild@x86-031.build.eng.bos.redhat.com) (gcc version 4.4.7 20120313 (Red Hat 4.4.7-16) (GCC) ) #1 SMP Mon Nov 23 12:55:32 EST 2015


  ******  HSPICE Threads Information  ******

  Command Line Threads Count :     1
  Available CPU Count        :     8
  Actual Threads Count       :     1


  ******  Circuit Statistics  ******
  # nodes       =       4 # elements   =       4
  # resistors   =       0 # capacitors =       0 # inductors   =       0
  # mutual_inds =       0 # vccs       =       0 # vcvs        =       0
  # cccs        =       0 # ccvs       =       0 # volt_srcs   =       3
  # curr_srcs   =       0 # diodes     =       0 # bjts        =       0
  # jfets       =       0 # mosfets    =       1 # U elements  =       0
  # T elements  =       0 # W elements =       0 # B elements  =       0
  # S elements  =       0 # P elements =       0 # va device   =       0
  # vector_srcs =       0 # N elements =       0


  ******  Runtime Statistics (seconds)  ******

  analysis           time    # points   tot. iter  conv.iter
  op point           0.00           1           0
  dc sweep           0.02        1002        2006
  readin             0.00
  errchk             0.00
  setup              0.00
  output             0.00


           peak memory used        120.12 megabytes
           total cpu time            0.03 seconds
           total elapsed time        1.56 seconds
           job started at     14:26:46 02/01/2016
           job ended   at     14:26:47 02/01/2016


 lic: Release hspice token(s) 
 lic: total license checkout elapse time:        1.49(s)
