Circuit: * Z:\home\cole\Desktop\3102 LTSPICE SIM\circuit sim 555.asc

WARNING: Node U1:N003 is floating.
WARNING: Node NC_09 is floating.

WARNING: Less than two connections to node NC_07.  This node is used by S:U1:1.
WARNING: Less than two connections to node NC_09.  This node is used by C1.
Direct Newton iteration for .op point succeeded.

Date: Tue Mar 08 21:55:22 2016
Total elapsed time: 0.281 seconds.

tnom = 27
temp = 27
method = modified trap
totiter = 2193
traniter = 2145
tranpoints = 1057
accept = 1053
rejected = 4
matrix size = 107
fillins = 130
solver = Normal
Thread vector: 24.4/18.7[2] 11.1/7.3[2] 4.9/3.5[2] 0.6/1.4[1]  2592/500
Matrix Compiler1: 13.36 KB object code size  3.6/1.8/[1.2]
Matrix Compiler2: 11.51 KB object code size  1.4/2.1/[1.0]


