Circuit: * C:\Users\colen\Desktop\3102\filter simulation.asc


Date: Wed Jan 27 18:07:41 2016
Total elapsed time: 0.016 seconds.

tnom = 27
temp = 27
method = trap
totiter = 0
traniter = 0
tranpoints = 0
accept = 0
rejected = 0
matrix size = 3
fillins = 1
solver = Normal

