Using: /usr/local/apps/synopsys/hspice/linux/hspice sim.sp
 ****** HSPICE -- I-2013.12-SP2-1 32-BIT (Jun 10 2014) RHEL32 ******            
  Copyright (C) 2014 Synopsys, Inc. All Rights Reserved.                        
  Unpublished-rights reserved under US copyright laws.
  This program is protected by law and is subject to the
  terms and conditions of the license agreement from Synopsys.
  Use of this program is your acceptance to be bound by the
  license agreement. HSPICE is the trademark of Synopsys, Inc.
  Input File: sim.sp                                                            
  Command line options: sim.sp
 lic:  
 lic: FLEXlm: v10.9.8 
 lic: USER:   niels538             HOSTNAME: ece-brunnen 
 lic: HOSTID: 1803734581ca         PID:      20259 
 lic: Using FLEXlm license file: 
 lic: 27020@synopsys.cse.umn.edu 
 lic: Checkout 1 hspice 
 lic: License/Maintenance for hspice will expire on 19-dec-2016/2015.06 
 lic: 42(in_use)/50(total) FLOATING license(s) on SERVER 27020@synopsys.cse.umn.edu 
 lic:   
 Init: read install configuration file: /usr/local/apps/synopsys/hspice/meta.cfg
 **warning** (adder.sp:343)'.end' can not exist in include/lib files, ignored
 scientific notation:
 a=10**-18  f=10**-15  p=10**-12  n=10**-9  u=10**-6
 m=10**-3   k=10**3    x=10**6    g=10**9 
 **warning** multiple output options specified, using post    
1****** HSPICE -- I-2013.12-SP2-1 32-BIT (Jun 10 2014) RHEL32 ******            
 ******  
 **han-carlson adder - 16 bit

 ****** circuit name directory
 circuit number to circuit name directory
   number circuitname                     definition         multiplier
        0 main circuit
        1 xi66.                           pg_buffer          1.00 
        2 xi65.                           pg_buffer          1.00 
        3 xi64.                           pg_buffer          1.00 
        4 xi52.                           pg_buffer          1.00 
        5 xi41.                           pg_buffer          1.00 
        6 xi37.                           pg_buffer          1.00 
        7 xi33.                           pg_buffer          1.00 
        8 xi29.                           pg_buffer          1.00 
        9 xi25.                           pg_buffer          1.00 
       10 xi21.                           pg_buffer          1.00 
       11 xi17.                           pg_buffer          1.00 
       12 xi13.                           pg_buffer          1.00 
       13 xi10.                           pg_buffer          1.00 
       14 xi2.                            pg_buffer          1.00 
       15 xi63.                           group_g            1.00 
       16 xi62.                           group_g            1.00 
       17 xi61.                           group_g            1.00 
       18 xi60.                           group_g            1.00 
       19 xi59.                           group_g            1.00 
       20 xi58.                           group_g            1.00 
       21 xi57.                           group_g            1.00 
       22 xi56.                           group_g            1.00 
       23 xi55.                           group_g            1.00 
       24 xi54.                           group_g            1.00 
       25 xi53.                           group_g            1.00 
       26 xi47.                           group_g            1.00 
       27 xi39.                           group_g            1.00 
       28 xi36.                           group_g            1.00 
       29 xi1.                            group_g            1.00 
       30 xi34.                           init_pg            1.00 
       31 xi31.                           init_pg            1.00 
       32 xi35.                           init_pg            1.00 
       33 xi30.                           init_pg            1.00 
       34 xi27.                           init_pg            1.00 
       35 xi26.                           init_pg            1.00 
       36 xi23.                           init_pg            1.00 
       37 xi22.                           init_pg            1.00 
       38 xi19.                           init_pg            1.00 
       39 xi18.                           init_pg            1.00 
       40 xi15.                           init_pg            1.00 
       41 xi14.                           init_pg            1.00 
       42 xi11.                           init_pg            1.00 
       43 xi9.                            init_pg            1.00 
       44 xi8.                            init_pg            1.00 
       45 xi6.                            init_pg            1.00 
       46 xi51.                           group_pg           1.00 
       47 xi50.                           group_pg           1.00 
       48 xi49.                           group_pg           1.00 
       49 xi48.                           group_pg           1.00 
       50 xi46.                           group_pg           1.00 
       51 xi45.                           group_pg           1.00 
       52 xi44.                           group_pg           1.00 
       53 xi43.                           group_pg           1.00 
       54 xi42.                           group_pg           1.00 
       55 xi38.                           group_pg           1.00 
       56 xi32.                           group_pg           1.00 
       57 xi28.                           group_pg           1.00 
       58 xi24.                           group_pg           1.00 
       59 xi20.                           group_pg           1.00 
       60 xi16.                           group_pg           1.00 
       61 xi12.                           group_pg           1.00 
       62 xi7.                            group_pg           1.00 
       63 xi81.                           xor                1.00 
       64 xi80.                           xor                1.00 
       65 xi79.                           xor                1.00 
       66 xi78.                           xor                1.00 
       67 xi77.                           xor                1.00 
       68 xi76.                           xor                1.00 
       69 xi75.                           xor                1.00 
       70 xi74.                           xor                1.00 
       71 xi73.                           xor                1.00 
       72 xi72.                           xor                1.00 
       73 xi71.                           xor                1.00 
       74 xi70.                           xor                1.00 
       75 xi69.                           xor                1.00 
       76 xi68.                           xor                1.00 
       77 xi67.                           xor                1.00 
       78 xi86.                           generate           1.00 
       79 xi66.xi3.                       buffer             1.00 
       80 xi66.xi2.                       buffer             1.00 
       81 xi65.xi3.                       buffer             1.00 
       82 xi65.xi2.                       buffer             1.00 
       83 xi64.xi3.                       buffer             1.00 
       84 xi64.xi2.                       buffer             1.00 
       85 xi52.xi3.                       buffer             1.00 
       86 xi52.xi2.                       buffer             1.00 
       87 xi41.xi3.                       buffer             1.00 
       88 xi41.xi2.                       buffer             1.00 
       89 xi37.xi3.                       buffer             1.00 
       90 xi37.xi2.                       buffer             1.00 
       91 xi33.xi3.                       buffer             1.00 
       92 xi33.xi2.                       buffer             1.00 
       93 xi29.xi3.                       buffer             1.00 
       94 xi29.xi2.                       buffer             1.00 
       95 xi25.xi3.                       buffer             1.00 
       96 xi25.xi2.                       buffer             1.00 
       97 xi21.xi3.                       buffer             1.00 
       98 xi21.xi2.                       buffer             1.00 
       99 xi17.xi3.                       buffer             1.00 
      100 xi17.xi2.                       buffer             1.00 
      101 xi13.xi3.                       buffer             1.00 
      102 xi13.xi2.                       buffer             1.00 
      103 xi10.xi3.                       buffer             1.00 
      104 xi10.xi2.                       buffer             1.00 
      105 xi2.xi3.                        buffer             1.00 
      106 xi2.xi2.                        buffer             1.00 
      107 xi63.xi5.                       generate           1.00 
      108 xi62.xi5.                       generate           1.00 
      109 xi61.xi5.                       generate           1.00 
      110 xi60.xi5.                       generate           1.00 
      111 xi59.xi5.                       generate           1.00 
      112 xi58.xi5.                       generate           1.00 
      113 xi57.xi5.                       generate           1.00 
      114 xi56.xi5.                       generate           1.00 
      115 xi55.xi5.                       generate           1.00 
      116 xi54.xi5.                       generate           1.00 
      117 xi53.xi5.                       generate           1.00 
      118 xi47.xi5.                       generate           1.00 
      119 xi39.xi5.                       generate           1.00 
      120 xi36.xi5.                       generate           1.00 
      121 xi1.xi5.                        generate           1.00 
      122 xi34.xi0.                       nand               1.00 
      123 xi34.xi1.                       xor                1.00 
      124 xi34.xi2.                       inv                1.00 
      125 xi31.xi0.                       nand               1.00 
      126 xi31.xi1.                       xor                1.00 
      127 xi31.xi2.                       inv                1.00 
      128 xi35.xi0.                       nand               1.00 
      129 xi35.xi1.                       xor                1.00 
      130 xi35.xi2.                       inv                1.00 
      131 xi30.xi0.                       nand               1.00 
      132 xi30.xi1.                       xor                1.00 
      133 xi30.xi2.                       inv                1.00 
      134 xi27.xi0.                       nand               1.00 
      135 xi27.xi1.                       xor                1.00 
      136 xi27.xi2.                       inv                1.00 
      137 xi26.xi0.                       nand               1.00 
      138 xi26.xi1.                       xor                1.00 
      139 xi26.xi2.                       inv                1.00 
      140 xi23.xi0.                       nand               1.00 
      141 xi23.xi1.                       xor                1.00 
      142 xi23.xi2.                       inv                1.00 
      143 xi22.xi0.                       nand               1.00 
      144 xi22.xi1.                       xor                1.00 
      145 xi22.xi2.                       inv                1.00 
      146 xi19.xi0.                       nand               1.00 
      147 xi19.xi1.                       xor                1.00 
      148 xi19.xi2.                       inv                1.00 
      149 xi18.xi0.                       nand               1.00 
      150 xi18.xi1.                       xor                1.00 
      151 xi18.xi2.                       inv                1.00 
      152 xi15.xi0.                       nand               1.00 
      153 xi15.xi1.                       xor                1.00 
      154 xi15.xi2.                       inv                1.00 
      155 xi14.xi0.                       nand               1.00 
      156 xi14.xi1.                       xor                1.00 
      157 xi14.xi2.                       inv                1.00 
      158 xi11.xi0.                       nand               1.00 
      159 xi11.xi1.                       xor                1.00 
      160 xi11.xi2.                       inv                1.00 
      161 xi9.xi0.                        nand               1.00 
      162 xi9.xi1.                        xor                1.00 
      163 xi9.xi2.                        inv                1.00 
      164 xi8.xi0.                        nand               1.00 
      165 xi8.xi1.                        xor                1.00 
      166 xi8.xi2.                        inv                1.00 
      167 xi6.xi0.                        nand               1.00 
      168 xi6.xi1.                        xor                1.00 
      169 xi6.xi2.                        inv                1.00 
      170 xi51.xi0.                       nand               1.00 
      171 xi51.xi3.                       inv                1.00 
      172 xi51.xi7.                       generate           1.00 
      173 xi50.xi0.                       nand               1.00 
      174 xi50.xi3.                       inv                1.00 
      175 xi50.xi7.                       generate           1.00 
      176 xi49.xi0.                       nand               1.00 
      177 xi49.xi3.                       inv                1.00 
      178 xi49.xi7.                       generate           1.00 
      179 xi48.xi0.                       nand               1.00 
      180 xi48.xi3.                       inv                1.00 
      181 xi48.xi7.                       generate           1.00 
      182 xi46.xi0.                       nand               1.00 
      183 xi46.xi3.                       inv                1.00 
      184 xi46.xi7.                       generate           1.00 
      185 xi45.xi0.                       nand               1.00 
      186 xi45.xi3.                       inv                1.00 
      187 xi45.xi7.                       generate           1.00 
      188 xi44.xi0.                       nand               1.00 
      189 xi44.xi3.                       inv                1.00 
      190 xi44.xi7.                       generate           1.00 
      191 xi43.xi0.                       nand               1.00 
      192 xi43.xi3.                       inv                1.00 
      193 xi43.xi7.                       generate           1.00 
      194 xi42.xi0.                       nand               1.00 
      195 xi42.xi3.                       inv                1.00 
      196 xi42.xi7.                       generate           1.00 
      197 xi38.xi0.                       nand               1.00 
      198 xi38.xi3.                       inv                1.00 
      199 xi38.xi7.                       generate           1.00 
      200 xi32.xi0.                       nand               1.00 
      201 xi32.xi3.                       inv                1.00 
      202 xi32.xi7.                       generate           1.00 
      203 xi28.xi0.                       nand               1.00 
      204 xi28.xi3.                       inv                1.00 
      205 xi28.xi7.                       generate           1.00 
      206 xi24.xi0.                       nand               1.00 
      207 xi24.xi3.                       inv                1.00 
      208 xi24.xi7.                       generate           1.00 
      209 xi20.xi0.                       nand               1.00 
      210 xi20.xi3.                       inv                1.00 
      211 xi20.xi7.                       generate           1.00 
      212 xi16.xi0.                       nand               1.00 
      213 xi16.xi3.                       inv                1.00 
      214 xi16.xi7.                       generate           1.00 
      215 xi12.xi0.                       nand               1.00 
      216 xi12.xi3.                       inv                1.00 
      217 xi12.xi7.                       generate           1.00 
      218 xi7.xi0.                        nand               1.00 
      219 xi7.xi3.                        inv                1.00 
      220 xi7.xi7.                        generate           1.00 
      221 xi66.xi3.xi1.                   inv                1.00 
      222 xi66.xi3.xi0.                   inv                1.00 
      223 xi66.xi2.xi1.                   inv                1.00 
      224 xi66.xi2.xi0.                   inv                1.00 
      225 xi65.xi3.xi1.                   inv                1.00 
      226 xi65.xi3.xi0.                   inv                1.00 
      227 xi65.xi2.xi1.                   inv                1.00 
      228 xi65.xi2.xi0.                   inv                1.00 
      229 xi64.xi3.xi1.                   inv                1.00 
      230 xi64.xi3.xi0.                   inv                1.00 
      231 xi64.xi2.xi1.                   inv                1.00 
      232 xi64.xi2.xi0.                   inv                1.00 
      233 xi52.xi3.xi1.                   inv                1.00 
      234 xi52.xi3.xi0.                   inv                1.00 
      235 xi52.xi2.xi1.                   inv                1.00 
      236 xi52.xi2.xi0.                   inv                1.00 
      237 xi41.xi3.xi1.                   inv                1.00 
      238 xi41.xi3.xi0.                   inv                1.00 
      239 xi41.xi2.xi1.                   inv                1.00 
      240 xi41.xi2.xi0.                   inv                1.00 
      241 xi37.xi3.xi1.                   inv                1.00 
      242 xi37.xi3.xi0.                   inv                1.00 
      243 xi37.xi2.xi1.                   inv                1.00 
      244 xi37.xi2.xi0.                   inv                1.00 
      245 xi33.xi3.xi1.                   inv                1.00 
      246 xi33.xi3.xi0.                   inv                1.00 
      247 xi33.xi2.xi1.                   inv                1.00 
      248 xi33.xi2.xi0.                   inv                1.00 
      249 xi29.xi3.xi1.                   inv                1.00 
      250 xi29.xi3.xi0.                   inv                1.00 
      251 xi29.xi2.xi1.                   inv                1.00 
      252 xi29.xi2.xi0.                   inv                1.00 
      253 xi25.xi3.xi1.                   inv                1.00 
      254 xi25.xi3.xi0.                   inv                1.00 
      255 xi25.xi2.xi1.                   inv                1.00 
      256 xi25.xi2.xi0.                   inv                1.00 
      257 xi21.xi3.xi1.                   inv                1.00 
      258 xi21.xi3.xi0.                   inv                1.00 
      259 xi21.xi2.xi1.                   inv                1.00 
      260 xi21.xi2.xi0.                   inv                1.00 
      261 xi17.xi3.xi1.                   inv                1.00 
      262 xi17.xi3.xi0.                   inv                1.00 
      263 xi17.xi2.xi1.                   inv                1.00 
      264 xi17.xi2.xi0.                   inv                1.00 
      265 xi13.xi3.xi1.                   inv                1.00 
      266 xi13.xi3.xi0.                   inv                1.00 
      267 xi13.xi2.xi1.                   inv                1.00 
      268 xi13.xi2.xi0.                   inv                1.00 
      269 xi10.xi3.xi1.                   inv                1.00 
      270 xi10.xi3.xi0.                   inv                1.00 
      271 xi10.xi2.xi1.                   inv                1.00 
      272 xi10.xi2.xi0.                   inv                1.00 
      273 xi2.xi3.xi1.                    inv                1.00 
      274 xi2.xi3.xi0.                    inv                1.00 
      275 xi2.xi2.xi1.                    inv                1.00 
      276 xi2.xi2.xi0.                    inv                1.00 


 circuit parameter definitions
  parameter          =  value 

     0:period                                                  = 4.000e-09      
     0:pw                                                      = 2.000e-09      
     0:assert                                                  = 1.000e-10      




 constants  - tnom         kt           vt           gapsi        ni
            2.9815e+02   4.1163e-21   2.5692e-02   1.1156e+00   1.2565e+16 
1****** HSPICE -- I-2013.12-SP2-1 32-BIT (Jun 10 2014) RHEL32 ******            
 ******  
 **han-carlson adder - 16 bit

 ****** mos   model parameters tnom=  25.000 temp=  25.000 ******
 Model Name: nmos_vtl  
 BSIM4 Model (Level 54)
    MOBMOD = 0
    BINUNIT = 1
    PARAMCHK = 1
    CAPMOD = 2
    DIOMOD = 1
    RDSMOD = 0
    TRNQSMOD = 0
    ACNQSMOD = 0
    RBODYMOD = 1
    RGATEMOD = 1
    PERMOD = 1
    GEOMOD = 1
    RGEOMOD = 0
    FNOIMOD = 1
    TNOIMOD = 0
    IGCMOD = 1
    IGBMOD = 1
    STIMOD = 0
    VERSION =      4 
    TOXREF = 1.75e-09 
    TOXE = 1.75e-09 
    TOXP = 1.1e-09 
    TOXM = 1.75e-09 
    DTOX = 6.5e-10 
    EPSROX =    3.9 
    CDSC =      0 
    CDSCB =      0 
    CDSCD =      0 
    CIT =      0 
    NFACTOR =    2.1 
    XJ = 1.4e-08 
    VSAT = 1.474e+05 
    A0 =      1 
    AGS =  1e-20 
    A1 =      0 
    A2 =      1 
    AT = 3.3e+04 
    KETA =   0.04 
    NSUB =  6e+16 
    NDEP = 3.3e+18 
    NSD =  2e+20 
    NGATE =  2e+20 
    GAMMA1 =      0 
    GAMMA2 =      0 
    VBX =      0 
    VBM =     -3 
    XT = 1.55e-07 
    K1 =   0.53 
    KT1 =  -0.11 
    KT1L =      0 
    KT2 =  0.022 
    K2 =   0.01 
    K3 =      0 
    K3B =      0 
    LPE0 =      0 
    LPEB =      0 
    DVTP0 =  1e-09 
    DVTP1 =    0.1 
    W0 = 2.5e-06 
    DVT0 =      1 
    DVT1 =      2 
    DVT2 = -0.032 
    DVT0W =      0 
    DVT1W =      0 
    DVT2W =      0 
    DROUT =    0.5 
    DSUB =    0.1 
    VTH0 =  0.471 
    EU =   1.67 
    UA =  6e-10 
    UA1 = 4.31e-09 
    UB = 1.2e-18 
    UB1 = 7.61e-18 
    UC =      0 
    UC1 = -5.6e-11 
    U0 = 0.04359 
    UTE =   -1.5 
    VOFF =  -0.13 
    VOFFL =      0 
    MINV =   0.05 
    FPROUT =    0.2 
    PDITS =   0.08 
    PDITSD =   0.23 
    PDITSL = 2.3e+06 
    DELTA =   0.01 
    RDSW =    155 
    RDSWMIN =      0 
    RDWMIN =      0 
    RSWMIN =      0 
    RDW =     85 
    RSW =     85 
    PRWG =      0 
    PRWB = 6.8e-11 
    PRT =      0 
    ETA0 = 0.0049 
    ETAB =      0 
    PCLM =   0.04 
    PDIBLC1 =  0.001 
    PDIBLC2 =  0.001 
    PDIBLCB = -0.005 
    PSCBE1 = 8.14e+08 
    PSCBE2 =  1e-07 
    PVAG =  1e-20 
    WR =      1 
    DWG =      0 
    DWB =      0 
    XW =      0 
    XWREF =      0 
    XL = -2e-08 
    XLREF = -2e-08 
    B0 =      0 
    B1 =      0 
    ALPHA0 =  0.074 
    ALPHA1 =  0.005 
    AGIDL = 0.0002 
    BGIDL = 2.1e+09 
    CGIDL = 0.0002 
    PHIN =      0 
    EGIDL =    0.8 
    AIGC =  0.012 
    BIGC = 0.0028 
    CIGC =  0.002 
    AIGSD =  0.012 
    BIGSD = 0.0028 
    CIGSD =  0.002 
    AIGBACC =  0.012 
    BIGBACC = 0.0028 
    CIGBACC =  0.002 
    AIGBINV =  0.014 
    BIGBINV =  0.004 
    CIGBINV =  0.004 
    NIGC =      1 
    NIGBINV =      3 
    NIGBACC =      1 
    NTOX =      1 
    EIGBINV =    1.1 
    PIGCD =      1 
    POXEDGE =      1 
    XRCRG1 =     12 
    TNOIA =    1.5 
    TNOIB =    3.5 
    NTNOI =      1 
    XRCRG2 =      5 
    BETA0 =     30 
    IJTHDFWD =   0.01 
    IJTHSFWD =   0.01 
    IJTHDREV =  0.001 
    IJTHSREV =  0.001 
    XJBVD =      1 
    XJBVS =      1 
    BVD =     10 
    BVS =     10 
    VFB =  -0.55 
    GBMIN =  1e-10 
    RBDB =     15 
    RBPB =      5 
    RBSB =     15 
    RBPS =     15 
    RBPD =     15 
    CGSL = 2.653e-10 
    CGDL = 2.653e-10 
    CKAPPAS =   0.03 
    CKAPPAD =   0.03 
    CF = 1.195e-10 
    CLC =  1e-07 
    CLE =    0.6 
    DWC =  5e-09 
    DLC = 3.75e-09 
    DLCIG = 3.75e-09 
    DWJ =      0 
    VFBCV =     -1 
    ACDE =      1 
    MOIN =     15 
    NOFF =    0.9 
    VOFFCV =   0.02 
    DMCG =      0 
    DMCI =      0 
    DMDG =      0 
    DMCGT =      0 
    XGW =      0 
    XGL =      0 
    RSHG =    0.4 
    NGCON =      1 
    TCJ =  0.001 
    TPB =  0.005 
    TCJSW =  0.001 
    TPBSW =  0.005 
    TCJSWG =  0.001 
    TPBSWG =  0.005 
    SK0 =      0 
    SK1 =      0 
    SK2 =      0 
    SL =  2e-06 
    SW =  2e-06 
    K =      0 
    TNOM =  300.1 
    CGSO = 1.1e-10 
    CGDO = 1.1e-10 
    CGBO = 2.56e-11 
    XPART =      0 
    RSH =      5 
    JSS = 0.0001 
    JSWS =  1e-11 
    JSWGS =  1e-10 
    PBS =      1 
    MJS =    0.5 
    PBSWS =      1 
    MJSWS =   0.33 
    CJS = 0.0005 
    CJSWS =  5e-10 
    NJS =      1 
    PBSWGS =      1 
    MJSWGS =   0.33 
    CJSWGS =  3e-10 
    XTIS =      3 
    JSD = 0.0001 
    JSWD =  1e-11 
    JSWGD =  1e-10 
    PBD =      1 
    MJD =    0.5 
    PBSWD =      1 
    MJSWD =   0.33 
    CJD = 0.0005 
    CJSWD =  5e-10 
    NJD =      1 
    PBSWGD =      1 
    MJSWGD =   0.33 
    CJSWGD =  5e-10 
    XTID =      3 
    LMLT =      1 
    WMLT =      1 
    LINT = 3.75e-09 
    LL =      0 
    LLC =      0 
    LLN =      1 
    LW =      0 
    LWC =      0 
    LWN =      1 
    LWL =      0 
    LWLC =      0 
    LMIN =      0 
    LMAX =      1 
    WINT =  5e-09 
    WL =      0 
    WLC =      0 
    WLN =      1 
    WW =      0 
    WWC =      0 
    WWN =      1 
    WWL =      0 
    WWLC =      0 
    WMIN =      0 
    WMAX =      1 
    NOIA = 6.25e+41 
    NOIB = 3.125e+26 
    NOIC = 8.75e+09 
    EM = 4.1e+07 
    EF =      1 
    AF =      1 
    KF =      0 
    TRS =      0 
    TRD =      0 
 Model Name: pmos_vtl  
 BSIM4 Model (Level 54)
    MOBMOD = 0
    BINUNIT = 1
    PARAMCHK = 1
    CAPMOD = 2
    DIOMOD = 1
    RDSMOD = 0
    TRNQSMOD = 0
    ACNQSMOD = 0
    RBODYMOD = 1
    RGATEMOD = 1
    PERMOD = 1
    GEOMOD = 1
    RGEOMOD = 0
    FNOIMOD = 1
    TNOIMOD = 0
    IGCMOD = 1
    IGBMOD = 1
    STIMOD = 0
    VERSION =      4 
    TOXREF = 1.85e-09 
    TOXE = 1.85e-09 
    TOXP = 1.1e-09 
    TOXM = 1.85e-09 
    DTOX = 7.5e-10 
    EPSROX =    3.9 
    CDSC =      0 
    CDSCB =      0 
    CDSCD =      0 
    CIT =      0 
    NFACTOR =    2.1 
    XJ = 1.4e-08 
    VSAT =  7e+04 
    A0 =      1 
    AGS =  1e-20 
    A1 =      0 
    A2 =      1 
    AT = 3.3e+04 
    KETA = -0.047 
    NSUB =  6e+16 
    NDEP = 2.54e+18 
    NSD =  2e+20 
    NGATE =  2e+20 
    GAMMA1 =      0 
    GAMMA2 =      0 
    VBX =      0 
    VBM =     -3 
    XT = 1.55e-07 
    K1 =  0.491 
    KT1 =  -0.11 
    KT1L =      0 
    KT2 =  0.022 
    K2 =  -0.01 
    K3 =      0 
    K3B =      0 
    LPE0 =      0 
    LPEB =      0 
    DVTP0 =  1e-09 
    DVTP1 =   0.05 
    W0 = 2.5e-06 
    DVT0 =      1 
    DVT1 =      2 
    DVT2 = -0.032 
    DVT0W =      0 
    DVT1W =      0 
    DVT2W =      0 
    DROUT =   0.56 
    DSUB =    0.1 
    VTH0 = -0.423 
    EU =      1 
    UA =  2e-09 
    UA1 = 4.31e-09 
    UB =  5e-19 
    UB1 = 7.61e-18 
    UC =      0 
    UC1 = -5.6e-11 
    U0 = 0.00432 
    UTE =   -1.5 
    VOFF = -0.126 
    VOFFL =      0 
    MINV =   0.05 
    FPROUT =    0.2 
    PDITS =   0.08 
    PDITSD =   0.23 
    PDITSL = 2.3e+06 
    DELTA =   0.01 
    RDSW =    155 
    RDSWMIN =      0 
    RDWMIN =      0 
    RSWMIN =      0 
    RDW =     85 
    RSW =     85 
    PRWG = 3.22e-08 
    PRWB = 6.8e-11 
    PRT =      0 
    ETA0 = 0.0049 
    ETAB =      0 
    PCLM =   0.12 
    PDIBLC1 =  0.001 
    PDIBLC2 =  0.001 
    PDIBLCB = 3.4e-08 
    PSCBE1 = 8.14e+08 
    PSCBE2 = 9.58e-07 
    PVAG =  1e-20 
    WR =      1 
    DWG =      0 
    DWB =      0 
    XW =      0 
    XWREF =      0 
    XL = -2e-08 
    XLREF = -2e-08 
    B0 = -1e-20 
    B1 =      0 
    ALPHA0 =  0.074 
    ALPHA1 =  0.005 
    AGIDL = 0.0002 
    BGIDL = 2.1e+09 
    CGIDL = 0.0002 
    PHIN =      0 
    EGIDL =    0.8 
    AIGC =   0.69 
    BIGC = 0.0012 
    CIGC = 0.0008 
    AIGSD = 0.0087 
    BIGSD = 0.0012 
    CIGSD = 0.0008 
    AIGBACC =  0.012 
    BIGBACC = 0.0028 
    CIGBACC =  0.002 
    AIGBINV =  0.014 
    BIGBINV =  0.004 
    CIGBINV =  0.004 
    NIGC =      1 
    NIGBINV =      3 
    NIGBACC =      1 
    NTOX =      1 
    EIGBINV =    1.1 
    PIGCD =      1 
    POXEDGE =      1 
    XRCRG1 =     12 
    TNOIA =    1.5 
    TNOIB =    3.5 
    NTNOI =      1 
    XRCRG2 =      5 
    BETA0 =     30 
    IJTHDFWD =   0.01 
    IJTHSFWD =   0.01 
    IJTHDREV =  0.001 
    IJTHSREV =  0.001 
    XJBVD =      1 
    XJBVS =      1 
    BVD =     10 
    BVS =     10 
    VFB =   0.55 
    GBMIN =  1e-10 
    RBDB =     15 
    RBPB =      5 
    RBSB =     15 
    RBPS =     15 
    RBPD =     15 
    CGSL = 2.653e-10 
    CGDL = 2.653e-10 
    CKAPPAS =   0.03 
    CKAPPAD =   0.03 
    CF = 1.183e-10 
    CLC =  1e-07 
    CLE =    0.6 
    DWC =  5e-09 
    DLC = 3.75e-09 
    DLCIG = 3.75e-09 
    DWJ =      0 
    VFBCV =     -1 
    ACDE =      1 
    MOIN =     15 
    NOFF =    0.9 
    VOFFCV =   0.02 
    DMCG =      0 
    DMCI =      0 
    DMDG =      0 
    DMCGT =      0 
    XGW =      0 
    XGL =      0 
    RSHG =    0.4 
    NGCON =      1 
    TCJ =  0.001 
    TPB =  0.005 
    TCJSW =  0.001 
    TPBSW =  0.005 
    TCJSWG =  0.001 
    TPBSWG =  0.005 
    SK0 =      0 
    SK1 =      0 
    SK2 =      0 
    SL =  2e-06 
    SW =  2e-06 
    K =      0 
    TNOM =  300.1 
    CGSO = 1.1e-10 
    CGDO = 1.1e-10 
    CGBO = 2.56e-11 
    XPART =      0 
    RSH =      5 
    JSS = 0.0001 
    JSWS =  1e-11 
    JSWGS =  1e-10 
    PBS =      1 
    MJS =    0.5 
    PBSWS =      1 
    MJSWS =   0.33 
    CJS = 0.0005 
    CJSWS =  5e-10 
    NJS =      1 
    PBSWGS =      1 
    MJSWGS =   0.33 
    CJSWGS =  3e-10 
    XTIS =      3 
    JSD = 0.0001 
    JSWD =  1e-11 
    JSWGD =  1e-10 
    PBD =      1 
    MJD =    0.5 
    PBSWD =      1 
    MJSWD =   0.33 
    CJD = 0.0005 
    CJSWD =  5e-10 
    NJD =      1 
    PBSWGD =      1 
    MJSWGD =   0.33 
    CJSWGD =  5e-10 
    XTID =      3 
    LMLT =      1 
    WMLT =      1 
    LINT = 3.75e-09 
    LL =      0 
    LLC =      0 
    LLN =      1 
    LW =      0 
    LWC =      0 
    LWN =      1 
    LWL =      0 
    LWLC =      0 
    LMIN =      0 
    LMAX =      1 
    WINT =  5e-09 
    WL =      0 
    WLC =      0 
    WLN =      1 
    WW =      0 
    WWC =      0 
    WWN =      1 
    WWL =      0 
    WWLC =      0 
    WMIN =      0 
    WMAX =      1 
    NOIA = 6.188e+40 
    NOIB = 1.5e+25 
    NOIC = 8.75e+09 
    EM = 4.1e+07 
    EF =      1 
    AF =      1 
    KF =      0 
    TRS =      0 
    TRD =      0 
  **info** (sim.sp:27) DC voltage reset to initial transient source value              in source        0:va0                 new dc=  0.0000D+00
 **warning** (v_$va0:0) pulse rise time is  < or = zero, reset to tstep
 **warning** (v_$va0:0) pulse fall time is  < or = zero, reset to tstep
 **warning** (v_$va1:0) pulse rise time is  < or = zero, reset to tstep
 **warning** (v_$va1:0) pulse fall time is  < or = zero, reset to tstep
 **warning** (v_$va10:0) pulse rise time is  < or = zero, reset to tstep
 **warning** (v_$va10:0) pulse fall time is  < or = zero, reset to tstep
 **warning** (v_$va11:0) pulse rise time is  < or = zero, reset to tstep
 **warning** (v_$va11:0) pulse fall time is  < or = zero, reset to tstep
 **warning** (v_$va12:0) pulse rise time is  < or = zero, reset to tstep
 **warning** (v_$va12:0) pulse fall time is  < or = zero, reset to tstep
 **warning** (v_$va13:0) pulse rise time is  < or = zero, reset to tstep
 **warning** (v_$va13:0) pulse fall time is  < or = zero, reset to tstep
 **warning** (v_$va14:0) pulse rise time is  < or = zero, reset to tstep
 **warning** (v_$va14:0) pulse fall time is  < or = zero, reset to tstep
 **warning** (v_$va3:0) pulse rise time is  < or = zero, reset to tstep
 **warning** (v_$va3:0) pulse fall time is  < or = zero, reset to tstep
 **warning** (v_$va6:0) pulse rise time is  < or = zero, reset to tstep
 **warning** (v_$va6:0) pulse fall time is  < or = zero, reset to tstep
 **warning** (v_$va7:0) pulse rise time is  < or = zero, reset to tstep
 **warning** (v_$va7:0) pulse fall time is  < or = zero, reset to tstep
 **warning** (v_$va8:0) pulse rise time is  < or = zero, reset to tstep
 **warning** (v_$va8:0) pulse fall time is  < or = zero, reset to tstep
 **warning** (v_$vb1:0) pulse rise time is  < or = zero, reset to tstep
 **warning** (v_$vb1:0) pulse fall time is  < or = zero, reset to tstep
 **warning** (v_$vb11:0) pulse rise time is  < or = zero, reset to tstep
 **warning** (v_$vb11:0) pulse fall time is  < or = zero, reset to tstep
 **warning** (v_$vb12:0) pulse rise time is  < or = zero, reset to tstep
 **warning** (v_$vb12:0) pulse fall time is  < or = zero, reset to tstep
 **warning** (v_$vb14:0) pulse rise time is  < or = zero, reset to tstep
 **warning** (v_$vb14:0) pulse fall time is  < or = zero, reset to tstep
 **warning** (v_$vb3:0) pulse rise time is  < or = zero, reset to tstep
 **warning** (v_$vb3:0) pulse fall time is  < or = zero, reset to tstep
 **warning** (v_$vb4:0) pulse rise time is  < or = zero, reset to tstep
 **warning** (v_$vb4:0) pulse fall time is  < or = zero, reset to tstep
 **warning** (v_$vb6:0) pulse rise time is  < or = zero, reset to tstep
 **warning** (v_$vb6:0) pulse fall time is  < or = zero, reset to tstep
 **warning** (v_$vb7:0) pulse rise time is  < or = zero, reset to tstep
 **warning** (v_$vb7:0) pulse fall time is  < or = zero, reset to tstep
 **warning** (nmos_vtl:m4) Warning:  Acde = 0.279016 may be too small in BSIM4 model with w=1e-07 l=5e-08.
1****** HSPICE -- I-2013.12-SP2-1 32-BIT (Jun 10 2014) RHEL32 ******            
 ******  
 **han-carlson adder - 16 bit

 ****** circuit element summary tnom=  25.000 temp=  25.000 ******


 **** capacitors
  
  
                                                              
 element name        0:c157     0:c156     0:c155     0:c154  
 node1               0:p15      0:p14      0:g14      0:p13   
 node2               0:0        0:0        0:0        0:0     
 model                                                        
 cap eff           1.500e-15  1.500e-15  1.500e-15  1.500e-15 
 tc1               0.000e+00  0.000e+00  0.000e+00  0.000e+00 
 tc2               0.000e+00  0.000e+00  0.000e+00  0.000e+00 
 scale             1.000e+00  1.000e+00  1.000e+00  1.000e+00 
 ic               -1.235e-29 -1.235e-29 -1.235e-29 -1.235e-29 
 m                 1.000e+00  1.000e+00  1.000e+00  1.000e+00 
 w                 0.000e+00  0.000e+00  0.000e+00  0.000e+00 
 l                 0.000e+00  0.000e+00  0.000e+00  0.000e+00 
 temp              2.500e+01  2.500e+01  2.500e+01  2.500e+01 
  
  
                                                              
 element name        0:c153     0:c152     0:c151     0:c150  
 node1               0:g13      0:p12      0:g12      0:p11   
 node2               0:0        0:0        0:0        0:0     
 model                                                        
 cap eff           1.500e-15  1.500e-15  1.500e-15  1.500e-15 
 tc1               0.000e+00  0.000e+00  0.000e+00  0.000e+00 
 tc2               0.000e+00  0.000e+00  0.000e+00  0.000e+00 
 scale             1.000e+00  1.000e+00  1.000e+00  1.000e+00 
 ic               -1.235e-29 -1.235e-29 -1.235e-29 -1.235e-29 
 m                 1.000e+00  1.000e+00  1.000e+00  1.000e+00 
 w                 0.000e+00  0.000e+00  0.000e+00  0.000e+00 
 l                 0.000e+00  0.000e+00  0.000e+00  0.000e+00 
 temp              2.500e+01  2.500e+01  2.500e+01  2.500e+01 
  
  
                                                              
 element name        0:c149     0:c148     0:c147     0:c146  
 node1               0:g11      0:p10      0:g10      0:p9    
 node2               0:0        0:0        0:0        0:0     
 model                                                        
 cap eff           1.500e-15  1.500e-15  1.500e-15  1.500e-15 
 tc1               0.000e+00  0.000e+00  0.000e+00  0.000e+00 
 tc2               0.000e+00  0.000e+00  0.000e+00  0.000e+00 
 scale             1.000e+00  1.000e+00  1.000e+00  1.000e+00 
 ic               -1.235e-29 -1.235e-29 -1.235e-29 -1.235e-29 
 m                 1.000e+00  1.000e+00  1.000e+00  1.000e+00 
 w                 0.000e+00  0.000e+00  0.000e+00  0.000e+00 
 l                 0.000e+00  0.000e+00  0.000e+00  0.000e+00 
 temp              2.500e+01  2.500e+01  2.500e+01  2.500e+01 
  
  
                                                              
 element name        0:c145     0:c144     0:c143     0:c142  
 node1               0:g9       0:p8       0:g8       0:p7    
 node2               0:0        0:0        0:0        0:0     
 model                                                        
 cap eff           1.500e-15  1.500e-15  1.500e-15  1.500e-15 
 tc1               0.000e+00  0.000e+00  0.000e+00  0.000e+00 
 tc2               0.000e+00  0.000e+00  0.000e+00  0.000e+00 
 scale             1.000e+00  1.000e+00  1.000e+00  1.000e+00 
 ic               -1.235e-29 -1.235e-29 -1.235e-29 -1.235e-29 
 m                 1.000e+00  1.000e+00  1.000e+00  1.000e+00 
 w                 0.000e+00  0.000e+00  0.000e+00  0.000e+00 
 l                 0.000e+00  0.000e+00  0.000e+00  0.000e+00 
 temp              2.500e+01  2.500e+01  2.500e+01  2.500e+01 
  
  
                                                              
 element name        0:c141     0:c140     0:c139     0:c138  
 node1               0:g7       0:p6       0:g6       0:g5    
 node2               0:0        0:0        0:0        0:0     
 model                                                        
 cap eff           1.500e-15  1.500e-15  1.500e-15  1.500e-15 
 tc1               0.000e+00  0.000e+00  0.000e+00  0.000e+00 
 tc2               0.000e+00  0.000e+00  0.000e+00  0.000e+00 
 scale             1.000e+00  1.000e+00  1.000e+00  1.000e+00 
 ic               -1.235e-29 -1.235e-29 -1.235e-29 -1.235e-29 
 m                 1.000e+00  1.000e+00  1.000e+00  1.000e+00 
 w                 0.000e+00  0.000e+00  0.000e+00  0.000e+00 
 l                 0.000e+00  0.000e+00  0.000e+00  0.000e+00 
 temp              2.500e+01  2.500e+01  2.500e+01  2.500e+01 
  
  
                                                               
 element name        0:c137     0:c136     0:c135     0:c134   
 node1               0:p5       0:p4       0:g4       0:net114 
 node2               0:0        0:0        0:0        0:0      
 model                                                         
 cap eff           1.500e-15  1.500e-15  1.500e-15  1.500e-15  
 tc1               0.000e+00  0.000e+00  0.000e+00  0.000e+00  
 tc2               0.000e+00  0.000e+00  0.000e+00  0.000e+00  
 scale             1.000e+00  1.000e+00  1.000e+00  1.000e+00  
 ic               -1.235e-29 -1.235e-29 -1.235e-29 -1.235e-29  
 m                 1.000e+00  1.000e+00  1.000e+00  1.000e+00  
 w                 0.000e+00  0.000e+00  0.000e+00  0.000e+00  
 l                 0.000e+00  0.000e+00  0.000e+00  0.000e+00  
 temp              2.500e+01  2.500e+01  2.500e+01  2.500e+01  
  
  
                                                                  
 element name        0:c133      0:c132      0:c131      0:c130   
 node1               0:net111    0:net108    0:net111    0:net108 
 node2               0:0         0:0         0:0         0:0      
 model                                                            
 cap eff           1.500e-15   1.500e-15   1.500e-15   1.500e-15  
 tc1               0.000e+00   0.000e+00   0.000e+00   0.000e+00  
 tc2               0.000e+00   0.000e+00   0.000e+00   0.000e+00  
 scale             1.000e+00   1.000e+00   1.000e+00   1.000e+00  
 ic               -1.235e-29  -1.235e-29  -1.235e-29  -1.235e-29  
 m                 1.000e+00   1.000e+00   1.000e+00   1.000e+00  
 w                 0.000e+00   0.000e+00   0.000e+00   0.000e+00  
 l                 0.000e+00   0.000e+00   0.000e+00   0.000e+00  
 temp              2.500e+01   2.500e+01   2.500e+01   2.500e+01  
  
  
                                                                  
 element name        0:c129      0:c128      0:c127      0:c126   
 node1               0:net105    0:net102    0:net105    0:net102 
 node2               0:0         0:0         0:0         0:0      
 model                                                            
 cap eff           1.500e-15   1.500e-15   1.500e-15   1.500e-15  
 tc1               0.000e+00   0.000e+00   0.000e+00   0.000e+00  
 tc2               0.000e+00   0.000e+00   0.000e+00   0.000e+00  
 scale             1.000e+00   1.000e+00   1.000e+00   1.000e+00  
 ic               -1.235e-29  -1.235e-29  -1.235e-29  -1.235e-29  
 m                 1.000e+00   1.000e+00   1.000e+00   1.000e+00  
 w                 0.000e+00   0.000e+00   0.000e+00   0.000e+00  
 l                 0.000e+00   0.000e+00   0.000e+00   0.000e+00  
 temp              2.500e+01   2.500e+01   2.500e+01   2.500e+01  
  
  
                                                              
 element name        0:c125     0:c124     0:c123     0:c122  
 node1               0:net97    0:net94    0:net97    0:net94 
 node2               0:0        0:0        0:0        0:0     
 model                                                        
 cap eff           1.500e-15  1.500e-15  1.500e-15  1.500e-15 
 tc1               0.000e+00  0.000e+00  0.000e+00  0.000e+00 
 tc2               0.000e+00  0.000e+00  0.000e+00  0.000e+00 
 scale             1.000e+00  1.000e+00  1.000e+00  1.000e+00 
 ic               -1.235e-29 -1.235e-29 -1.235e-29 -1.235e-29 
 m                 1.000e+00  1.000e+00  1.000e+00  1.000e+00 
 w                 0.000e+00  0.000e+00  0.000e+00  0.000e+00 
 l                 0.000e+00  0.000e+00  0.000e+00  0.000e+00 
 temp              2.500e+01  2.500e+01  2.500e+01  2.500e+01 
  
  
                                                              
 element name        0:c121     0:c120     0:c119     0:c118  
 node1               0:net90    0:net87    0:net90    0:net87 
 node2               0:0        0:0        0:0        0:0     
 model                                                        
 cap eff           1.500e-15  1.500e-15  1.500e-15  1.500e-15 
 tc1               0.000e+00  0.000e+00  0.000e+00  0.000e+00 
 tc2               0.000e+00  0.000e+00  0.000e+00  0.000e+00 
 scale             1.000e+00  1.000e+00  1.000e+00  1.000e+00 
 ic               -1.235e-29 -1.235e-29 -1.235e-29 -1.235e-29 
 m                 1.000e+00  1.000e+00  1.000e+00  1.000e+00 
 w                 0.000e+00  0.000e+00  0.000e+00  0.000e+00 
 l                 0.000e+00  0.000e+00  0.000e+00  0.000e+00 
 temp              2.500e+01  2.500e+01  2.500e+01  2.500e+01 
  
  
                                                              
 element name        0:c117     0:c116     0:c115     0:c114  
 node1               0:net83    0:net80    0:net83    0:net80 
 node2               0:0        0:0        0:0        0:0     
 model                                                        
 cap eff           1.500e-15  1.500e-15  1.500e-15  1.500e-15 
 tc1               0.000e+00  0.000e+00  0.000e+00  0.000e+00 
 tc2               0.000e+00  0.000e+00  0.000e+00  0.000e+00 
 scale             1.000e+00  1.000e+00  1.000e+00  1.000e+00 
 ic               -1.235e-29 -1.235e-29 -1.235e-29 -1.235e-29 
 m                 1.000e+00  1.000e+00  1.000e+00  1.000e+00 
 w                 0.000e+00  0.000e+00  0.000e+00  0.000e+00 
 l                 0.000e+00  0.000e+00  0.000e+00  0.000e+00 
 temp              2.500e+01  2.500e+01  2.500e+01  2.500e+01 
  
  
                                                              
 element name        0:c113     0:c112     0:c111     0:c110  
 node1               0:net76    0:net73    0:net76    0:net73 
 node2               0:0        0:0        0:0        0:0     
 model                                                        
 cap eff           1.500e-15  1.500e-15  1.500e-15  1.500e-15 
 tc1               0.000e+00  0.000e+00  0.000e+00  0.000e+00 
 tc2               0.000e+00  0.000e+00  0.000e+00  0.000e+00 
 scale             1.000e+00  1.000e+00  1.000e+00  1.000e+00 
 ic               -1.235e-29 -1.235e-29 -1.235e-29 -1.235e-29 
 m                 1.000e+00  1.000e+00  1.000e+00  1.000e+00 
 w                 0.000e+00  0.000e+00  0.000e+00  0.000e+00 
 l                 0.000e+00  0.000e+00  0.000e+00  0.000e+00 
 temp              2.500e+01  2.500e+01  2.500e+01  2.500e+01 
  
  
                                                                
 element name        0:c109      0:c108      0:c107     0:c106  
 node1               0:net130    0:net131    0:net78    0:net75 
 node2               0:0         0:0         0:0        0:0     
 model                                                          
 cap eff           1.500e-15   1.500e-15   1.500e-15  1.500e-15 
 tc1               0.000e+00   0.000e+00   0.000e+00  0.000e+00 
 tc2               0.000e+00   0.000e+00   0.000e+00  0.000e+00 
 scale             1.000e+00   1.000e+00   1.000e+00  1.000e+00 
 ic               -1.235e-29  -1.235e-29  -1.235e-29 -1.235e-29 
 m                 1.000e+00   1.000e+00   1.000e+00  1.000e+00 
 w                 0.000e+00   0.000e+00   0.000e+00  0.000e+00 
 l                 0.000e+00   0.000e+00   0.000e+00  0.000e+00 
 temp              2.500e+01   2.500e+01   2.500e+01  2.500e+01 
  
  
                                                                  
 element name        0:c105      0:c104      0:c103      0:c102   
 node1               0:net126    0:net127    0:net129    0:net128 
 node2               0:0         0:0         0:0         0:0      
 model                                                            
 cap eff           1.500e-15   1.500e-15   1.500e-15   1.500e-15  
 tc1               0.000e+00   0.000e+00   0.000e+00   0.000e+00  
 tc2               0.000e+00   0.000e+00   0.000e+00   0.000e+00  
 scale             1.000e+00   1.000e+00   1.000e+00   1.000e+00  
 ic               -1.235e-29  -1.235e-29  -1.235e-29  -1.235e-29  
 m                 1.000e+00   1.000e+00   1.000e+00   1.000e+00  
 w                 0.000e+00   0.000e+00   0.000e+00   0.000e+00  
 l                 0.000e+00   0.000e+00   0.000e+00   0.000e+00  
 temp              2.500e+01   2.500e+01   2.500e+01   2.500e+01  
  
  
                                                              
 element name        0:c101     0:c100     0:c98      0:c97   
 node1               0:net82    0:net85    0:net75    0:net78 
 node2               0:0        0:0        0:0        0:0     
 model                                                        
 cap eff           1.500e-15  1.500e-15  1.500e-15  1.500e-15 
 tc1               0.000e+00  0.000e+00  0.000e+00  0.000e+00 
 tc2               0.000e+00  0.000e+00  0.000e+00  0.000e+00 
 scale             1.000e+00  1.000e+00  1.000e+00  1.000e+00 
 ic               -1.235e-29 -1.235e-29 -1.235e-29 -1.235e-29 
 m                 1.000e+00  1.000e+00  1.000e+00  1.000e+00 
 w                 0.000e+00  0.000e+00  0.000e+00  0.000e+00 
 l                 0.000e+00  0.000e+00  0.000e+00  0.000e+00 
 temp              2.500e+01  2.500e+01  2.500e+01  2.500e+01 
  
  
                                                              
 element name        0:c96      0:c95      0:c94      0:c93   
 node1               0:net89    0:net92    0:net82    0:net85 
 node2               0:0        0:0        0:0        0:0     
 model                                                        
 cap eff           1.500e-15  1.500e-15  1.500e-15  1.500e-15 
 tc1               0.000e+00  0.000e+00  0.000e+00  0.000e+00 
 tc2               0.000e+00  0.000e+00  0.000e+00  0.000e+00 
 scale             1.000e+00  1.000e+00  1.000e+00  1.000e+00 
 ic               -1.235e-29 -1.235e-29 -1.235e-29 -1.235e-29 
 m                 1.000e+00  1.000e+00  1.000e+00  1.000e+00 
 w                 0.000e+00  0.000e+00  0.000e+00  0.000e+00 
 l                 0.000e+00  0.000e+00  0.000e+00  0.000e+00 
 temp              2.500e+01  2.500e+01  2.500e+01  2.500e+01 
  
  
                                                              
 element name        0:c92      0:c91      0:c90      0:c89   
 node1               0:net96    0:net99    0:net89    0:net92 
 node2               0:0        0:0        0:0        0:0     
 model                                                        
 cap eff           1.500e-15  1.500e-15  1.500e-15  1.500e-15 
 tc1               0.000e+00  0.000e+00  0.000e+00  0.000e+00 
 tc2               0.000e+00  0.000e+00  0.000e+00  0.000e+00 
 scale             1.000e+00  1.000e+00  1.000e+00  1.000e+00 
 ic               -1.235e-29 -1.235e-29 -1.235e-29 -1.235e-29 
 m                 1.000e+00  1.000e+00  1.000e+00  1.000e+00 
 w                 0.000e+00  0.000e+00  0.000e+00  0.000e+00 
 l                 0.000e+00  0.000e+00  0.000e+00  0.000e+00 
 temp              2.500e+01  2.500e+01  2.500e+01  2.500e+01 
  
  
                                                               
 element name        0:c88       0:c87      0:c86      0:c85   
 node1               0:net104    0:net96    0:net99    0:go1   
 node2               0:0         0:0        0:0        0:0     
 model                                                         
 cap eff           1.500e-15   1.500e-15  1.500e-15  1.500e-15 
 tc1               0.000e+00   0.000e+00  0.000e+00  0.000e+00 
 tc2               0.000e+00   0.000e+00  0.000e+00  0.000e+00 
 scale             1.000e+00   1.000e+00  1.000e+00  1.000e+00 
 ic               -1.235e-29  -1.235e-29 -1.235e-29 -1.235e-29 
 m                 1.000e+00   1.000e+00  1.000e+00  1.000e+00 
 w                 0.000e+00   0.000e+00  0.000e+00  0.000e+00 
 l                 0.000e+00   0.000e+00  0.000e+00  0.000e+00 
 temp              2.500e+01   2.500e+01  2.500e+01  2.500e+01 
  
  
                                                               
 element name        0:c84       0:c83      0:c82      0:c81   
 node1               0:net104    0:p3       0:net84    0:p5    
 node2               0:0         0:0        0:0        0:0     
 model                                                         
 cap eff           1.500e-15   1.500e-15  1.500e-15  1.500e-15 
 tc1               0.000e+00   0.000e+00  0.000e+00  0.000e+00 
 tc2               0.000e+00   0.000e+00  0.000e+00  0.000e+00 
 scale             1.000e+00   1.000e+00  1.000e+00  1.000e+00 
 ic               -1.235e-29  -1.235e-29 -1.235e-29 -1.235e-29 
 m                 1.000e+00   1.000e+00  1.000e+00  1.000e+00 
 w                 0.000e+00   0.000e+00  0.000e+00  0.000e+00 
 l                 0.000e+00   0.000e+00  0.000e+00  0.000e+00 
 temp              2.500e+01   2.500e+01  2.500e+01  2.500e+01 
  
  
                                                                
 element name        0:c80      0:c79      0:c78       0:c77    
 node1               0:net77    0:p7       0:net158    0:net156 
 node2               0:0        0:0        0:0         0:0      
 model                                                          
 cap eff           1.500e-15  1.500e-15  1.500e-15   1.500e-15  
 tc1               0.000e+00  0.000e+00  0.000e+00   0.000e+00  
 tc2               0.000e+00  0.000e+00  0.000e+00   0.000e+00  
 scale             1.000e+00  1.000e+00  1.000e+00   1.000e+00  
 ic               -1.235e-29 -1.235e-29 -1.235e-29  -1.235e-29  
 m                 1.000e+00  1.000e+00  1.000e+00   1.000e+00  
 w                 0.000e+00  0.000e+00  0.000e+00   0.000e+00  
 l                 0.000e+00  0.000e+00  0.000e+00   0.000e+00  
 temp              2.500e+01  2.500e+01  2.500e+01   2.500e+01  
  
  
                                                                
 element name        0:c76      0:c75       0:c74       0:c73   
 node1               0:go1      0:net124    0:net125    0:go3   
 node2               0:0        0:0         0:0         0:0     
 model                                                          
 cap eff           1.500e-15  1.500e-15   1.500e-15   1.500e-15 
 tc1               0.000e+00  0.000e+00   0.000e+00   0.000e+00 
 tc2               0.000e+00  0.000e+00   0.000e+00   0.000e+00 
 scale             1.000e+00  1.000e+00   1.000e+00   1.000e+00 
 ic               -1.235e-29 -1.235e-29  -1.235e-29  -1.235e-29 
 m                 1.000e+00  1.000e+00   1.000e+00   1.000e+00 
 w                 0.000e+00  0.000e+00   0.000e+00   0.000e+00 
 l                 0.000e+00  0.000e+00   0.000e+00   0.000e+00 
 temp              2.500e+01  2.500e+01   2.500e+01   2.500e+01 
  
  
                                                                 
 element name        0:c72       0:c71       0:c70       0:c69   
 node1               0:net123    0:net122    0:net154    0:net84 
 node2               0:0         0:0         0:0         0:0     
 model                                                           
 cap eff           1.500e-15   1.500e-15   1.500e-15   1.500e-15 
 tc1               0.000e+00   0.000e+00   0.000e+00   0.000e+00 
 tc2               0.000e+00   0.000e+00   0.000e+00   0.000e+00 
 scale             1.000e+00   1.000e+00   1.000e+00   1.000e+00 
 ic               -1.235e-29  -1.235e-29  -1.235e-29  -1.235e-29 
 m                 1.000e+00   1.000e+00   1.000e+00   1.000e+00 
 w                 0.000e+00   0.000e+00   0.000e+00   0.000e+00 
 l                 0.000e+00   0.000e+00   0.000e+00   0.000e+00 
 temp              2.500e+01   2.500e+01   2.500e+01   2.500e+01 
  
  
                                                                
 element name        0:c68       0:c67       0:c66      0:c65   
 node1               0:net120    0:net121    0:p13      0:net75 
 node2               0:0         0:0         0:0        0:0     
 model                                                          
 cap eff           1.500e-15   1.500e-15   1.500e-15  1.500e-15 
 tc1               0.000e+00   0.000e+00   0.000e+00  0.000e+00 
 tc2               0.000e+00   0.000e+00   0.000e+00  0.000e+00 
 scale             1.000e+00   1.000e+00   1.000e+00  1.000e+00 
 ic               -1.235e-29  -1.235e-29  -1.235e-29 -1.235e-29 
 m                 1.000e+00   1.000e+00   1.000e+00  1.000e+00 
 w                 0.000e+00   0.000e+00   0.000e+00  0.000e+00 
 l                 0.000e+00   0.000e+00   0.000e+00  0.000e+00 
 temp              2.500e+01   2.500e+01   2.500e+01  2.500e+01 
  
  
                                                                
 element name        0:c64      0:c63       0:c62      0:c61    
 node1               0:net78    0:net152    0:net77    0:net119 
 node2               0:0        0:0         0:0        0:0      
 model                                                          
 cap eff           1.500e-15  1.500e-15   1.500e-15  1.500e-15  
 tc1               0.000e+00  0.000e+00   0.000e+00  0.000e+00  
 tc2               0.000e+00  0.000e+00   0.000e+00  0.000e+00  
 scale             1.000e+00  1.000e+00   1.000e+00  1.000e+00  
 ic               -1.235e-29 -1.235e-29  -1.235e-29 -1.235e-29  
 m                 1.000e+00  1.000e+00   1.000e+00  1.000e+00  
 w                 0.000e+00  0.000e+00   0.000e+00  0.000e+00  
 l                 0.000e+00  0.000e+00   0.000e+00  0.000e+00  
 temp              2.500e+01  2.500e+01   2.500e+01  2.500e+01  
  
  
                                                                
 element name        0:c60        0:c59      0:c58      0:c57   
 node1               0:net0138    0:go3      0:po3      0:go4   
 node2               0:0          0:0        0:0        0:0     
 model                                                          
 cap eff           1.500e-15    1.500e-15  1.500e-15  1.500e-15 
 tc1               0.000e+00    0.000e+00  0.000e+00  0.000e+00 
 tc2               0.000e+00    0.000e+00  0.000e+00  0.000e+00 
 scale             1.000e+00    1.000e+00  1.000e+00  1.000e+00 
 ic               -1.235e-29   -1.235e-29 -1.235e-29 -1.235e-29 
 m                 1.000e+00    1.000e+00  1.000e+00  1.000e+00 
 w                 0.000e+00    0.000e+00  0.000e+00  0.000e+00 
 l                 0.000e+00    0.000e+00  0.000e+00  0.000e+00 
 temp              2.500e+01    2.500e+01  2.500e+01  2.500e+01 
  
  
                                                              
 element name        0:c56      0:c55      0:c54      0:c53   
 node1               0:po4      0:go5      0:po5      0:go6   
 node2               0:0        0:0        0:0        0:0     
 model                                                        
 cap eff           1.500e-15  1.500e-15  1.500e-15  1.500e-15 
 tc1               0.000e+00  0.000e+00  0.000e+00  0.000e+00 
 tc2               0.000e+00  0.000e+00  0.000e+00  0.000e+00 
 scale             1.000e+00  1.000e+00  1.000e+00  1.000e+00 
 ic               -1.235e-29 -1.235e-29 -1.235e-29 -1.235e-29 
 m                 1.000e+00  1.000e+00  1.000e+00  1.000e+00 
 w                 0.000e+00  0.000e+00  0.000e+00  0.000e+00 
 l                 0.000e+00  0.000e+00  0.000e+00  0.000e+00 
 temp              2.500e+01  2.500e+01  2.500e+01  2.500e+01 
  
  
                                                              
 element name        0:c52      0:c51      0:c50      0:c49   
 node1               0:po6      0:go7      0:po7      0:go8   
 node2               0:0        0:0        0:0        0:0     
 model                                                        
 cap eff           1.500e-15  1.500e-15  1.500e-15  1.500e-15 
 tc1               0.000e+00  0.000e+00  0.000e+00  0.000e+00 
 tc2               0.000e+00  0.000e+00  0.000e+00  0.000e+00 
 scale             1.000e+00  1.000e+00  1.000e+00  1.000e+00 
 ic               -1.235e-29 -1.235e-29 -1.235e-29 -1.235e-29 
 m                 1.000e+00  1.000e+00  1.000e+00  1.000e+00 
 w                 0.000e+00  0.000e+00  0.000e+00  0.000e+00 
 l                 0.000e+00  0.000e+00  0.000e+00  0.000e+00 
 temp              2.500e+01  2.500e+01  2.500e+01  2.500e+01 
  
  
                                                               
 element name        0:c48      0:c47      0:c46      0:c45    
 node1               0:po8      0:go9      0:p9       0:net170 
 node2               0:0        0:0        0:0        0:0      
 model                                                         
 cap eff           1.500e-15  1.500e-15  1.500e-15  1.500e-15  
 tc1               0.000e+00  0.000e+00  0.000e+00  0.000e+00  
 tc2               0.000e+00  0.000e+00  0.000e+00  0.000e+00  
 scale             1.000e+00  1.000e+00  1.000e+00  1.000e+00  
 ic               -1.235e-29 -1.235e-29 -1.235e-29 -1.235e-29  
 m                 1.000e+00  1.000e+00  1.000e+00  1.000e+00  
 w                 0.000e+00  0.000e+00  0.000e+00  0.000e+00  
 l                 0.000e+00  0.000e+00  0.000e+00  0.000e+00  
 temp              2.500e+01  2.500e+01  2.500e+01  2.500e+01  
  
  
                                                              
 element name        0:c44      0:c43      0:c42      0:c40   
 node1               0:po9      0:go10     0:p11      0:po10  
 node2               0:0        0:0        0:0        0:0     
 model                                                        
 cap eff           1.500e-15  1.500e-15  1.500e-15  1.500e-15 
 tc1               0.000e+00  0.000e+00  0.000e+00  0.000e+00 
 tc2               0.000e+00  0.000e+00  0.000e+00  0.000e+00 
 scale             1.000e+00  1.000e+00  1.000e+00  1.000e+00 
 ic               -1.235e-29 -1.235e-29 -1.235e-29 -1.235e-29 
 m                 1.000e+00  1.000e+00  1.000e+00  1.000e+00 
 w                 0.000e+00  0.000e+00  0.000e+00  0.000e+00 
 l                 0.000e+00  0.000e+00  0.000e+00  0.000e+00 
 temp              2.500e+01  2.500e+01  2.500e+01  2.500e+01 
  
  
                                                               
 element name        0:c39      0:c37       0:c36      0:c35   
 node1               0:go11     0:net169    0:po11     0:go12  
 node2               0:0        0:0         0:0        0:0     
 model                                                         
 cap eff           1.500e-15  1.500e-15   1.500e-15  1.500e-15 
 tc1               0.000e+00  0.000e+00   0.000e+00  0.000e+00 
 tc2               0.000e+00  0.000e+00   0.000e+00  0.000e+00 
 scale             1.000e+00  1.000e+00   1.000e+00  1.000e+00 
 ic               -1.235e-29 -1.235e-29  -1.235e-29 -1.235e-29 
 m                 1.000e+00  1.000e+00   1.000e+00  1.000e+00 
 w                 0.000e+00  0.000e+00   0.000e+00  0.000e+00 
 l                 0.000e+00  0.000e+00   0.000e+00  0.000e+00 
 temp              2.500e+01  2.500e+01   2.500e+01  2.500e+01 
  
  
                                                               
 element name        0:c34       0:c33      0:c32      0:c31   
 node1               0:net168    0:po13     0:po12     0:go13  
 node2               0:0         0:0        0:0        0:0     
 model                                                         
 cap eff           1.500e-15   1.500e-15  1.500e-15  1.500e-15 
 tc1               0.000e+00   0.000e+00  0.000e+00  0.000e+00 
 tc2               0.000e+00   0.000e+00  0.000e+00  0.000e+00 
 scale             1.000e+00   1.000e+00  1.000e+00  1.000e+00 
 ic               -1.235e-29  -1.235e-29 -1.235e-29 -1.235e-29 
 m                 1.000e+00   1.000e+00  1.000e+00  1.000e+00 
 w                 0.000e+00   0.000e+00  0.000e+00  0.000e+00 
 l                 0.000e+00   0.000e+00  0.000e+00  0.000e+00 
 temp              2.500e+01   2.500e+01  2.500e+01  2.500e+01 
  
  
                                                              
 element name        0:c30      0:c29      0:c28      0:c27   
 node1               0:go14     0:g16      0:p16      0:go15  
 node2               0:0        0:0        0:0        0:0     
 model                                                        
 cap eff           1.500e-15  1.500e-15  1.500e-15  1.500e-15 
 tc1               0.000e+00  0.000e+00  0.000e+00  0.000e+00 
 tc2               0.000e+00  0.000e+00  0.000e+00  0.000e+00 
 scale             1.000e+00  1.000e+00  1.000e+00  1.000e+00 
 ic               -1.235e-29 -1.235e-29 -1.235e-29 -1.235e-29 
 m                 1.000e+00  1.000e+00  1.000e+00  1.000e+00 
 w                 0.000e+00  0.000e+00  0.000e+00  0.000e+00 
 l                 0.000e+00  0.000e+00  0.000e+00  0.000e+00 
 temp              2.500e+01  2.500e+01  2.500e+01  2.500e+01 
  
  
                                                              
 element name        0:c26      0:c25      0:c24      0:c23   
 node1               0:cout     0:s_15     0:s_14     0:s_13  
 node2               0:0        0:0        0:0        0:0     
 model                                                        
 cap eff           1.500e-15  1.500e-15  1.500e-15  1.500e-15 
 tc1               0.000e+00  0.000e+00  0.000e+00  0.000e+00 
 tc2               0.000e+00  0.000e+00  0.000e+00  0.000e+00 
 scale             1.000e+00  1.000e+00  1.000e+00  1.000e+00 
 ic               -1.235e-29 -1.235e-29 -1.235e-29 -1.235e-29 
 m                 1.000e+00  1.000e+00  1.000e+00  1.000e+00 
 w                 0.000e+00  0.000e+00  0.000e+00  0.000e+00 
 l                 0.000e+00  0.000e+00  0.000e+00  0.000e+00 
 temp              2.500e+01  2.500e+01  2.500e+01  2.500e+01 
  
  
                                                              
 element name        0:c22      0:c21      0:c20      0:c19   
 node1               0:s_12     0:s_11     0:s_10     0:s_9   
 node2               0:0        0:0        0:0        0:0     
 model                                                        
 cap eff           1.500e-15  1.500e-15  1.500e-15  1.500e-15 
 tc1               0.000e+00  0.000e+00  0.000e+00  0.000e+00 
 tc2               0.000e+00  0.000e+00  0.000e+00  0.000e+00 
 scale             1.000e+00  1.000e+00  1.000e+00  1.000e+00 
 ic               -1.235e-29 -1.235e-29 -1.235e-29 -1.235e-29 
 m                 1.000e+00  1.000e+00  1.000e+00  1.000e+00 
 w                 0.000e+00  0.000e+00  0.000e+00  0.000e+00 
 l                 0.000e+00  0.000e+00  0.000e+00  0.000e+00 
 temp              2.500e+01  2.500e+01  2.500e+01  2.500e+01 
  
  
                                                              
 element name        0:c18      0:c17      0:c16      0:c15   
 node1               0:s_8      0:s_7      0:s_6      0:s_5   
 node2               0:0        0:0        0:0        0:0     
 model                                                        
 cap eff           1.500e-15  1.500e-15  1.500e-15  1.500e-15 
 tc1               0.000e+00  0.000e+00  0.000e+00  0.000e+00 
 tc2               0.000e+00  0.000e+00  0.000e+00  0.000e+00 
 scale             1.000e+00  1.000e+00  1.000e+00  1.000e+00 
 ic               -1.235e-29 -1.235e-29 -1.235e-29 -1.235e-29 
 m                 1.000e+00  1.000e+00  1.000e+00  1.000e+00 
 w                 0.000e+00  0.000e+00  0.000e+00  0.000e+00 
 l                 0.000e+00  0.000e+00  0.000e+00  0.000e+00 
 temp              2.500e+01  2.500e+01  2.500e+01  2.500e+01 
  
  
                                                              
 element name        0:c14      0:c13      0:c12      0:c11   
 node1               0:s_4      0:s_3      0:s_2      0:s_1   
 node2               0:0        0:0        0:0        0:0     
 model                                                        
 cap eff           1.500e-15  1.500e-15  1.500e-15  1.500e-15 
 tc1               0.000e+00  0.000e+00  0.000e+00  0.000e+00 
 tc2               0.000e+00  0.000e+00  0.000e+00  0.000e+00 
 scale             1.000e+00  1.000e+00  1.000e+00  1.000e+00 
 ic               -1.235e-29 -1.235e-29 -1.235e-29 -1.235e-29 
 m                 1.000e+00  1.000e+00  1.000e+00  1.000e+00 
 w                 0.000e+00  0.000e+00  0.000e+00  0.000e+00 
 l                 0.000e+00  0.000e+00  0.000e+00  0.000e+00 
 temp              2.500e+01  2.500e+01  2.500e+01  2.500e+01 
  
  
                                                              
 element name        0:c10      0:c9       0:c8       0:c7    
 node1               0:g2       0:p2       0:po2      0:go2   
 node2               0:0        0:0        0:0        0:0     
 model                                                        
 cap eff           1.500e-15  1.500e-15  1.500e-15  1.500e-15 
 tc1               0.000e+00  0.000e+00  0.000e+00  0.000e+00 
 tc2               0.000e+00  0.000e+00  0.000e+00  0.000e+00 
 scale             1.000e+00  1.000e+00  1.000e+00  1.000e+00 
 ic               -1.235e-29 -1.235e-29 -1.235e-29 -1.235e-29 
 m                 1.000e+00  1.000e+00  1.000e+00  1.000e+00 
 w                 0.000e+00  0.000e+00  0.000e+00  0.000e+00 
 l                 0.000e+00  0.000e+00  0.000e+00  0.000e+00 
 temp              2.500e+01  2.500e+01  2.500e+01  2.500e+01 
  
  
                                                              
 element name        0:c6       0:c5       0:c4       0:c3    
 node1               0:po1      0:go1      0:go1      0:go1   
 node2               0:0        0:0        0:0        0:0     
 model                                                        
 cap eff           1.500e-15  1.500e-15  1.500e-15  1.500e-15 
 tc1               0.000e+00  0.000e+00  0.000e+00  0.000e+00 
 tc2               0.000e+00  0.000e+00  0.000e+00  0.000e+00 
 scale             1.000e+00  1.000e+00  1.000e+00  1.000e+00 
 ic               -1.235e-29 -1.235e-29 -1.235e-29 -1.235e-29 
 m                 1.000e+00  1.000e+00  1.000e+00  1.000e+00 
 w                 0.000e+00  0.000e+00  0.000e+00  0.000e+00 
 l                 0.000e+00  0.000e+00  0.000e+00  0.000e+00 
 temp              2.500e+01  2.500e+01  2.500e+01  2.500e+01 
  
  
                                                    
 element name        0:c2       0:c1        0:c0    
 node1               0:g1       0:net114    0:p1    
 node2               0:0        0:0         0:0     
 model                                              
 cap eff           1.500e-15  1.500e-15   1.500e-15 
 tc1               0.000e+00  0.000e+00   0.000e+00 
 tc2               0.000e+00  0.000e+00   0.000e+00 
 scale             1.000e+00  1.000e+00   1.000e+00 
 ic               -1.235e-29 -1.235e-29  -1.235e-29 
 m                 1.000e+00  1.000e+00   1.000e+00 
 w                 0.000e+00  0.000e+00   0.000e+00 
 l                 0.000e+00  0.000e+00   0.000e+00 
 temp              2.500e+01  2.500e+01   2.500e+01 


 **** independent sources

     name         node1        node2      dc volt    ac mag    ac phase    type
  va0  a_0               0                  0.000e+00  0.000e+00  0.000e+00 pulse
             initial value   0.000e+00
             pulsed value.   1.100e+00
             delay time...   1.000e-10
             risetime.....   1.000e-13
             falltime.....   1.000e-13
             width........   2.000e-09
             period.......   4.000e-09

  va1  a_1               0                  0.000e+00  0.000e+00  0.000e+00 pulse
             initial value   0.000e+00
             pulsed value.   1.100e+00
             delay time...   1.000e-10
             risetime.....   1.000e-13
             falltime.....   1.000e-13
             width........   2.000e-09
             period.......   4.000e-09

  va10  a_10              0                  0.000e+00  0.000e+00  0.000e+00 pulse
             initial value   0.000e+00
             pulsed value.   1.100e+00
             delay time...   1.000e-10
             risetime.....   1.000e-13
             falltime.....   1.000e-13
             width........   2.000e-09
             period.......   4.000e-09

  va11  a_11              0                  0.000e+00  0.000e+00  0.000e+00 pulse
             initial value   0.000e+00
             pulsed value.   1.100e+00
             delay time...   1.000e-10
             risetime.....   1.000e-13
             falltime.....   1.000e-13
             width........   2.000e-09
             period.......   4.000e-09

  va12  a_12              0                  0.000e+00  0.000e+00  0.000e+00 pulse
             initial value   0.000e+00
             pulsed value.   1.100e+00
             delay time...   1.000e-10
             risetime.....   1.000e-13
             falltime.....   1.000e-13
             width........   2.000e-09
             period.......   4.000e-09

  va13  a_13              0                  0.000e+00  0.000e+00  0.000e+00 pulse
             initial value   0.000e+00
             pulsed value.   1.100e+00
             delay time...   1.000e-10
             risetime.....   1.000e-13
             falltime.....   1.000e-13
             width........   2.000e-09
             period.......   4.000e-09

  va14  a_14              0                  0.000e+00  0.000e+00  0.000e+00 pulse
             initial value   0.000e+00
             pulsed value.   1.100e+00
             delay time...   1.000e-10
             risetime.....   1.000e-13
             falltime.....   1.000e-13
             width........   2.000e-09
             period.......   4.000e-09

  va15  a_15              0                  0.000e+00  0.000e+00  0.000e+00 dc   
  va2  a_2               0                  0.000e+00  0.000e+00  0.000e+00 dc   
  va3  a_3               0                  0.000e+00  0.000e+00  0.000e+00 pulse
             initial value   0.000e+00
             pulsed value.   1.100e+00
             delay time...   1.000e-10
             risetime.....   1.000e-13
             falltime.....   1.000e-13
             width........   2.000e-09
             period.......   4.000e-09

  va4  a_4               0                  0.000e+00  0.000e+00  0.000e+00 dc   
  va5  a_5               0                  0.000e+00  0.000e+00  0.000e+00 dc   
  va6  a_6               0                  0.000e+00  0.000e+00  0.000e+00 pulse
             initial value   0.000e+00
             pulsed value.   1.100e+00
             delay time...   1.000e-10
             risetime.....   1.000e-13
             falltime.....   1.000e-13
             width........   2.000e-09
             period.......   4.000e-09

  va7  a_7               0                  0.000e+00  0.000e+00  0.000e+00 pulse
             initial value   0.000e+00
             pulsed value.   1.100e+00
             delay time...   1.000e-10
             risetime.....   1.000e-13
             falltime.....   1.000e-13
             width........   2.000e-09
             period.......   4.000e-09

  va8  a_8               0                  0.000e+00  0.000e+00  0.000e+00 pulse
             initial value   0.000e+00
             pulsed value.   1.100e+00
             delay time...   1.000e-10
             risetime.....   1.000e-13
             falltime.....   1.000e-13
             width........   2.000e-09
             period.......   4.000e-09

  va9  a_9               0                  0.000e+00  0.000e+00  0.000e+00 dc   
  vb0  b_0               0                  0.000e+00  0.000e+00  0.000e+00 dc   
  vb1  b_1               0                  0.000e+00  0.000e+00  0.000e+00 pulse
             initial value   0.000e+00
             pulsed value.   1.100e+00
             delay time...   1.000e-10
             risetime.....   1.000e-13
             falltime.....   1.000e-13
             width........   2.000e-09
             period.......   4.000e-09

  vb10  b_10              0                  0.000e+00  0.000e+00  0.000e+00 dc   
  vb11  b_11              0                  0.000e+00  0.000e+00  0.000e+00 pulse
             initial value   0.000e+00
             pulsed value.   1.100e+00
             delay time...   1.000e-10
             risetime.....   1.000e-13
             falltime.....   1.000e-13
             width........   2.000e-09
             period.......   4.000e-09

  vb12  b_12              0                  0.000e+00  0.000e+00  0.000e+00 pulse
             initial value   0.000e+00
             pulsed value.   1.100e+00
             delay time...   1.000e-10
             risetime.....   1.000e-13
             falltime.....   1.000e-13
             width........   2.000e-09
             period.......   4.000e-09

  vb13  b_13              0                  0.000e+00  0.000e+00  0.000e+00 dc   
  vb14  b_14              0                  0.000e+00  0.000e+00  0.000e+00 pulse
             initial value   0.000e+00
             pulsed value.   1.100e+00
             delay time...   1.000e-10
             risetime.....   1.000e-13
             falltime.....   1.000e-13
             width........   2.000e-09
             period.......   4.000e-09

  vb15  b_15              0                  0.000e+00  0.000e+00  0.000e+00 dc   
  vb2  b_2               0                  0.000e+00  0.000e+00  0.000e+00 dc   
  vb3  b_3               0                  0.000e+00  0.000e+00  0.000e+00 pulse
             initial value   0.000e+00
             pulsed value.   1.100e+00
             delay time...   1.000e-10
             risetime.....   1.000e-13
             falltime.....   1.000e-13
             width........   2.000e-09
             period.......   4.000e-09

  vb4  b_4               0                  0.000e+00  0.000e+00  0.000e+00 pulse
             initial value   0.000e+00
             pulsed value.   1.100e+00
             delay time...   1.000e-10
             risetime.....   1.000e-13
             falltime.....   1.000e-13
             width........   2.000e-09
             period.......   4.000e-09

  vb5  b_5               0                  0.000e+00  0.000e+00  0.000e+00 dc   
  vb6  b_6               0                  0.000e+00  0.000e+00  0.000e+00 pulse
             initial value   0.000e+00
             pulsed value.   1.100e+00
             delay time...   1.000e-10
             risetime.....   1.000e-13
             falltime.....   1.000e-13
             width........   2.000e-09
             period.......   4.000e-09

  vb7  b_7               0                  0.000e+00  0.000e+00  0.000e+00 pulse
             initial value   0.000e+00
             pulsed value.   1.100e+00
             delay time...   1.000e-10
             risetime.....   1.000e-13
             falltime.....   1.000e-13
             width........   2.000e-09
             period.......   4.000e-09

  vb8  b_8               0                  0.000e+00  0.000e+00  0.000e+00 dc   
  vb9  b_9               0                  0.000e+00  0.000e+00  0.000e+00 dc   
  vdd  vdd!              0                  1.100e+00  0.000e+00  0.000e+00 dc   


 **** mosfets


 **** BSIM4 Model (Level 54)
  
  
                                                                          
 element name       63:m4         63:m3         63:m2         63:m1       
 drain               0:s_15       63:net18       0:s_15       63:net8     
 gate                0:go15        0:p16        63:net8        0:p16      
 source             63:net18       0:0           0:0           0:0        
 bulk                0:0           0:0           0:0           0:0        
 model               0:nmos_vtl    0:nmos_vtl    0:nmos_vtl    0:nmos_vtl 
 w eff             9.000e-08     9.000e-08     9.000e-08     9.000e-08    
 l eff             2.250e-08     2.250e-08     2.250e-08     2.250e-08    
 rd eff            0.000e+00     0.000e+00     0.000e+00     0.000e+00    
 rs eff            0.000e+00     0.000e+00     0.000e+00     0.000e+00    
 cdsat             1.000e-14     1.000e-14     1.000e-14     1.000e-14    
 cssat             7.908e-18     7.908e-18     7.908e-18     7.908e-18    
 capbd             4.990e-17     4.990e-17     4.990e-17     4.990e-17    
 capbs             7.984e-17     7.984e-17     7.984e-17     7.984e-17    
 temp              2.500e+01     2.500e+01     2.500e+01     2.500e+01    
 aic                                                                      
 nf                1.000e+00     1.000e+00     1.000e+00     1.000e+00    
 min               0.000e+00     0.000e+00     0.000e+00     0.000e+00    
 rbdb              1.500e+01     1.500e+01     1.500e+01     1.500e+01    
 rbsb              1.500e+01     1.500e+01     1.500e+01     1.500e+01    
 rbpb              5.000e+00     5.000e+00     5.000e+00     5.000e+00    
 rbps              1.500e+01     1.500e+01     1.500e+01     1.500e+01    
 rbpd              1.500e+01     1.500e+01     1.500e+01     1.500e+01    
 trnqsmod          0.000e+00     0.000e+00     0.000e+00     0.000e+00    
 acnqsmod          0.000e+00     0.000e+00     0.000e+00     0.000e+00    
 rbodymod          1.000e+00     1.000e+00     1.000e+00     1.000e+00    
 rgatemod          1.000e+00     1.000e+00     1.000e+00     1.000e+00    
 geomod            1.000e+00     1.000e+00     1.000e+00     1.000e+00    
 rgeomod           0.000e+00     0.000e+00     0.000e+00     0.000e+00    
 delvto            0.000e+00     0.000e+00     0.000e+00     0.000e+00    
 mulu0             1.000e+00     1.000e+00     1.000e+00     1.000e+00    
 delk1             0.000e+00     0.000e+00     0.000e+00     0.000e+00    
 delnfct           0.000e+00     0.000e+00     0.000e+00     0.000e+00    
 deltox            0.000e+00    -1.235e-29    -1.235e-29    -1.235e-29    
 sa                0.000e+00     0.000e+00     0.000e+00     0.000e+00    
 sb                0.000e+00     0.000e+00     0.000e+00     0.000e+00    
[...]
  cbtot      1.395e-16    3.094e-16    1.559e-16    2.774e-16    1.395e-16
  cgs        3.603e-17    1.679e-16    7.461e-17    7.589e-17    3.603e-17
  cgd        2.298e-17    1.335e-16    6.468e-17    4.827e-17    2.298e-17



 subckt     xi29.xi2.x   xi25.xi3.x   xi25.xi3.x   xi25.xi3.x   xi25.xi3.x
 element  252:m1       253:m0       253:m1       254:m0       254:m1      
 model      0:pmos_vtl   0:nmos_vtl   0:pmos_vtl   0:nmos_vtl   0:pmos_vtl
 region         Linear       Linear       Cutoff       Cutoff       Linear
  id        -1.097e-08    7.038e-09   -4.235e-09    7.206e-09   -1.097e-08
  ibs       -1.506e-22    5.878e-23   -3.548e-23    1.841e-23   -1.506e-22
  ibd        1.720e-16   -3.714e-17    1.110e-12   -1.110e-12    1.720e-16
  vgs       -1.100e+00    1.099e+00   -1.321e-04    2.614e-05   -1.100e+00
  vds       -1.321e-04    2.851e-05   -1.100e+00    1.099e+00   -1.321e-04
  vbs        0.000e+00    0.000e+00    0.000e+00    0.000e+00    0.000e+00
  vth       -3.936e-01    4.428e-01   -2.681e-01    3.382e-01   -3.936e-01
  vdsat     -6.153e-01    4.271e-01   -5.874e-02    5.266e-02   -6.153e-01
  vod       -7.064e-01    6.571e-01    2.679e-01   -3.382e-01   -7.064e-01
  beta       1.278e-04    6.634e-04    2.353e-04    1.436e-03    1.278e-04
  gam eff    4.910e-01    5.300e-01    4.910e-01    5.300e-01    4.910e-01
  gm         8.078e-09    3.398e-09    7.927e-08    1.334e-07    8.078e-09
  gds        8.305e-05    2.469e-04    1.206e-08    1.501e-08    8.305e-05
  gmb        5.624e-09    3.048e-09    2.323e-08    4.701e-08    5.624e-09
  cdtot      3.230e-16    1.586e-16    1.247e-16    6.117e-17    3.230e-16
  cgtot      3.020e-16    1.393e-16    1.518e-16    7.369e-17    3.020e-16
  cstot      2.801e-16    1.347e-16    2.492e-16    1.227e-16    2.801e-16
  cbtot      3.094e-16    1.559e-16    2.774e-16    1.395e-16    3.094e-16
  cgs        1.679e-16    7.461e-17    7.589e-17    3.603e-17    1.679e-16
  cgd        1.335e-16    6.468e-17    4.827e-17    2.298e-17    1.335e-16



 subckt     xi25.xi2.x   xi25.xi2.x   xi25.xi2.x   xi25.xi2.x   xi21.xi3.x
 element  255:m0       255:m1       256:m0       256:m1       257:m0      
 model      0:nmos_vtl   0:pmos_vtl   0:nmos_vtl   0:pmos_vtl   0:nmos_vtl
 region         Linear       Cutoff       Cutoff       Linear       Linear
  id         6.424e-09   -4.235e-09    7.206e-09   -1.097e-08    7.038e-09
  ibs        5.878e-23   -3.548e-23    1.841e-23   -1.506e-22    5.878e-23
  ibd       -3.390e-17    1.110e-12   -1.110e-12    1.720e-16   -3.714e-17
  vgs        1.099e+00   -1.321e-04    2.636e-05   -1.100e+00    1.099e+00
  vds        2.602e-05   -1.100e+00    1.099e+00   -1.321e-04    2.851e-05
  vbs        0.000e+00    0.000e+00    0.000e+00    0.000e+00    0.000e+00
  vth        4.428e-01   -2.681e-01    3.382e-01   -3.936e-01    4.428e-01
  vdsat      4.271e-01   -5.874e-02    5.266e-02   -6.153e-01    4.271e-01
  vod        6.571e-01    2.679e-01   -3.382e-01   -7.064e-01    6.571e-01
  beta       6.634e-04    2.353e-04    1.436e-03    1.278e-04    6.634e-04
  gam eff    5.300e-01    4.910e-01    5.300e-01    4.910e-01    5.300e-01
  gm         3.102e-09    7.927e-08    1.334e-07    8.078e-09    3.398e-09
  gds        2.469e-04    1.206e-08    1.501e-08    8.305e-05    2.469e-04
  gmb        2.782e-09    2.323e-08    4.701e-08    5.624e-09    3.048e-09
  cdtot      1.586e-16    1.247e-16    6.117e-17    3.230e-16    1.586e-16
  cgtot      1.393e-16    1.518e-16    7.369e-17    3.020e-16    1.393e-16
  cstot      1.347e-16    2.492e-16    1.227e-16    2.801e-16    1.347e-16
  cbtot      1.559e-16    2.774e-16    1.395e-16    3.094e-16    1.559e-16
  cgs        7.461e-17    7.589e-17    3.603e-17    1.679e-16    7.461e-17
  cgd        6.468e-17    4.827e-17    2.298e-17    1.335e-16    6.468e-17



 subckt     xi21.xi3.x   xi21.xi3.x   xi21.xi3.x   xi21.xi2.x   xi21.xi2.x
 element  257:m1       258:m0       258:m1       259:m0       259:m1      
 model      0:pmos_vtl   0:nmos_vtl   0:pmos_vtl   0:nmos_vtl   0:pmos_vtl
 region         Cutoff       Cutoff       Linear       Linear       Cutoff
  id        -4.235e-09    7.206e-09   -1.097e-08    6.424e-09   -4.235e-09
  ibs       -3.548e-23    1.841e-23   -1.506e-22    5.878e-23   -3.548e-23
  ibd        1.110e-12   -1.110e-12    1.720e-16   -3.390e-17    1.110e-12
  vgs       -1.321e-04    2.614e-05   -1.100e+00    1.099e+00   -1.321e-04
  vds       -1.100e+00    1.099e+00   -1.321e-04    2.602e-05   -1.100e+00
  vbs        0.000e+00    0.000e+00    0.000e+00    0.000e+00    0.000e+00
  vth       -2.681e-01    3.382e-01   -3.936e-01    4.428e-01   -2.681e-01
  vdsat     -5.874e-02    5.266e-02   -6.153e-01    4.271e-01   -5.874e-02
  vod        2.679e-01   -3.382e-01   -7.064e-01    6.571e-01    2.679e-01
  beta       2.353e-04    1.436e-03    1.278e-04    6.634e-04    2.353e-04
  gam eff    4.910e-01    5.300e-01    4.910e-01    5.300e-01    4.910e-01
  gm         7.927e-08    1.334e-07    8.078e-09    3.102e-09    7.927e-08
  gds        1.206e-08    1.501e-08    8.305e-05    2.469e-04    1.206e-08
  gmb        2.323e-08    4.701e-08    5.624e-09    2.782e-09    2.323e-08
  cdtot      1.247e-16    6.117e-17    3.230e-16    1.586e-16    1.247e-16
  cgtot      1.518e-16    7.369e-17    3.020e-16    1.393e-16    1.518e-16
  cstot      2.492e-16    1.227e-16    2.801e-16    1.347e-16    2.492e-16
  cbtot      2.774e-16    1.395e-16    3.094e-16    1.559e-16    2.774e-16
  cgs        7.589e-17    3.603e-17    1.679e-16    7.461e-17    7.589e-17
  cgd        4.827e-17    2.298e-17    1.335e-16    6.468e-17    4.827e-17



 subckt     xi21.xi2.x   xi21.xi2.x   xi17.xi3.x   xi17.xi3.x   xi17.xi3.x
 element  260:m0       260:m1       261:m0       261:m1       262:m0      
 model      0:nmos_vtl   0:pmos_vtl   0:nmos_vtl   0:pmos_vtl   0:nmos_vtl
 region         Cutoff       Linear       Linear       Cutoff       Cutoff
  id         7.206e-09   -1.097e-08    7.038e-09   -4.235e-09    7.206e-09
  ibs        1.841e-23   -1.506e-22    5.878e-23   -3.548e-23    1.841e-23
  ibd       -1.110e-12    1.720e-16   -3.714e-17    1.110e-12   -1.110e-12
  vgs        2.636e-05   -1.100e+00    1.099e+00   -1.321e-04    2.614e-05
  vds        1.099e+00   -1.321e-04    2.851e-05   -1.100e+00    1.099e+00
  vbs        0.000e+00    0.000e+00    0.000e+00    0.000e+00    0.000e+00
  vth        3.382e-01   -3.936e-01    4.428e-01   -2.681e-01    3.382e-01
  vdsat      5.266e-02   -6.153e-01    4.271e-01   -5.874e-02    5.266e-02
  vod       -3.382e-01   -7.064e-01    6.571e-01    2.679e-01   -3.382e-01
  beta       1.436e-03    1.278e-04    6.634e-04    2.353e-04    1.436e-03
  gam eff    5.300e-01    4.910e-01    5.300e-01    4.910e-01    5.300e-01
  gm         1.334e-07    8.078e-09    3.398e-09    7.927e-08    1.334e-07
  gds        1.501e-08    8.305e-05    2.469e-04    1.206e-08    1.501e-08
  gmb        4.701e-08    5.624e-09    3.048e-09    2.323e-08    4.701e-08
  cdtot      6.117e-17    3.230e-16    1.586e-16    1.247e-16    6.117e-17
  cgtot      7.369e-17    3.020e-16    1.393e-16    1.518e-16    7.369e-17
  cstot      1.227e-16    2.801e-16    1.347e-16    2.492e-16    1.227e-16
  cbtot      1.395e-16    3.094e-16    1.559e-16    2.774e-16    1.395e-16
  cgs        3.603e-17    1.679e-16    7.461e-17    7.589e-17    3.603e-17
  cgd        2.298e-17    1.335e-16    6.468e-17    4.827e-17    2.298e-17



 subckt     xi17.xi3.x   xi17.xi2.x   xi17.xi2.x   xi17.xi2.x   xi17.xi2.x
 element  262:m1       263:m0       263:m1       264:m0       264:m1      
 model      0:pmos_vtl   0:nmos_vtl   0:pmos_vtl   0:nmos_vtl   0:pmos_vtl
 region         Linear       Linear       Cutoff       Cutoff       Linear
  id        -1.097e-08    6.424e-09   -4.235e-09    7.206e-09   -1.097e-08
  ibs       -1.506e-22    5.878e-23   -3.548e-23    1.841e-23   -1.506e-22
  ibd        1.720e-16   -3.390e-17    1.110e-12   -1.110e-12    1.720e-16
  vgs       -1.100e+00    1.099e+00   -1.321e-04    2.636e-05   -1.100e+00
  vds       -1.321e-04    2.602e-05   -1.100e+00    1.099e+00   -1.321e-04
  vbs        0.000e+00    0.000e+00    0.000e+00    0.000e+00    0.000e+00
  vth       -3.936e-01    4.428e-01   -2.681e-01    3.382e-01   -3.936e-01
  vdsat     -6.153e-01    4.271e-01   -5.874e-02    5.266e-02   -6.153e-01
  vod       -7.064e-01    6.571e-01    2.679e-01   -3.382e-01   -7.064e-01
  beta       1.278e-04    6.634e-04    2.353e-04    1.436e-03    1.278e-04
  gam eff    4.910e-01    5.300e-01    4.910e-01    5.300e-01    4.910e-01
  gm         8.078e-09    3.102e-09    7.927e-08    1.334e-07    8.078e-09
  gds        8.305e-05    2.469e-04    1.206e-08    1.501e-08    8.305e-05
  gmb        5.624e-09    2.782e-09    2.323e-08    4.701e-08    5.624e-09
  cdtot      3.230e-16    1.586e-16    1.247e-16    6.117e-17    3.230e-16
  cgtot      3.020e-16    1.393e-16    1.518e-16    7.369e-17    3.020e-16
  cstot      2.801e-16    1.347e-16    2.492e-16    1.227e-16    2.801e-16
  cbtot      3.094e-16    1.559e-16    2.774e-16    1.395e-16    3.094e-16
  cgs        1.679e-16    7.461e-17    7.589e-17    3.603e-17    1.679e-16
  cgd        1.335e-16    6.468e-17    4.827e-17    2.298e-17    1.335e-16



 subckt     xi13.xi3.x   xi13.xi3.x   xi13.xi3.x   xi13.xi3.x   xi13.xi2.x
 element  265:m0       265:m1       266:m0       266:m1       267:m0      
 model      0:nmos_vtl   0:pmos_vtl   0:nmos_vtl   0:pmos_vtl   0:nmos_vtl
 region         Linear       Cutoff       Cutoff       Linear       Linear
  id         7.038e-09   -4.235e-09    7.206e-09   -1.097e-08    6.424e-09
  ibs        5.878e-23   -3.548e-23    1.841e-23   -1.506e-22    5.878e-23
  ibd       -3.714e-17    1.110e-12   -1.110e-12    1.720e-16   -3.390e-17
  vgs        1.099e+00   -1.321e-04    2.614e-05   -1.100e+00    1.099e+00
  vds        2.851e-05   -1.100e+00    1.099e+00   -1.321e-04    2.602e-05
  vbs        0.000e+00    0.000e+00    0.000e+00    0.000e+00    0.000e+00
  vth        4.428e-01   -2.681e-01    3.382e-01   -3.936e-01    4.428e-01
  vdsat      4.271e-01   -5.874e-02    5.266e-02   -6.153e-01    4.271e-01
  vod        6.571e-01    2.679e-01   -3.382e-01   -7.064e-01    6.571e-01
  beta       6.634e-04    2.353e-04    1.436e-03    1.278e-04    6.634e-04
  gam eff    5.300e-01    4.910e-01    5.300e-01    4.910e-01    5.300e-01
  gm         3.398e-09    7.927e-08    1.334e-07    8.078e-09    3.102e-09
  gds        2.469e-04    1.206e-08    1.501e-08    8.305e-05    2.469e-04
  gmb        3.048e-09    2.323e-08    4.701e-08    5.624e-09    2.782e-09
  cdtot      1.586e-16    1.247e-16    6.117e-17    3.230e-16    1.586e-16
  cgtot      1.393e-16    1.518e-16    7.369e-17    3.020e-16    1.393e-16
  cstot      1.347e-16    2.492e-16    1.227e-16    2.801e-16    1.347e-16
  cbtot      1.559e-16    2.774e-16    1.395e-16    3.094e-16    1.559e-16
  cgs        7.461e-17    7.589e-17    3.603e-17    1.679e-16    7.461e-17
  cgd        6.468e-17    4.827e-17    2.298e-17    1.335e-16    6.468e-17



 subckt     xi13.xi2.x   xi13.xi2.x   xi13.xi2.x   xi10.xi3.x   xi10.xi3.x
 element  267:m1       268:m0       268:m1       269:m0       269:m1      
 model      0:pmos_vtl   0:nmos_vtl   0:pmos_vtl   0:nmos_vtl   0:pmos_vtl
 region         Cutoff       Cutoff       Linear       Linear       Cutoff
  id        -4.235e-09    7.206e-09   -1.097e-08    7.038e-09   -4.235e-09
  ibs       -3.548e-23    1.841e-23   -1.506e-22    5.878e-23   -3.548e-23
  ibd        1.110e-12   -1.110e-12    1.720e-16   -3.714e-17    1.110e-12
  vgs       -1.321e-04    2.636e-05   -1.100e+00    1.099e+00   -1.321e-04
  vds       -1.100e+00    1.099e+00   -1.321e-04    2.851e-05   -1.100e+00
  vbs        0.000e+00    0.000e+00    0.000e+00    0.000e+00    0.000e+00
  vth       -2.681e-01    3.382e-01   -3.936e-01    4.428e-01   -2.681e-01
  vdsat     -5.874e-02    5.266e-02   -6.153e-01    4.271e-01   -5.874e-02
  vod        2.679e-01   -3.382e-01   -7.064e-01    6.571e-01    2.679e-01
  beta       2.353e-04    1.436e-03    1.278e-04    6.634e-04    2.353e-04
  gam eff    4.910e-01    5.300e-01    4.910e-01    5.300e-01    4.910e-01
  gm         7.927e-08    1.334e-07    8.078e-09    3.398e-09    7.927e-08
  gds        1.206e-08    1.501e-08    8.305e-05    2.469e-04    1.206e-08
  gmb        2.323e-08    4.701e-08    5.624e-09    3.048e-09    2.323e-08
  cdtot      1.247e-16    6.117e-17    3.230e-16    1.586e-16    1.247e-16
  cgtot      1.518e-16    7.369e-17    3.020e-16    1.393e-16    1.518e-16
  cstot      2.492e-16    1.227e-16    2.801e-16    1.347e-16    2.492e-16
  cbtot      2.774e-16    1.395e-16    3.094e-16    1.559e-16    2.774e-16
  cgs        7.589e-17    3.603e-17    1.679e-16    7.461e-17    7.589e-17
  cgd        4.827e-17    2.298e-17    1.335e-16    6.468e-17    4.827e-17



 subckt     xi10.xi3.x   xi10.xi3.x   xi10.xi2.x   xi10.xi2.x   xi10.xi2.x
 element  270:m0       270:m1       271:m0       271:m1       272:m0      
 model      0:nmos_vtl   0:pmos_vtl   0:nmos_vtl   0:pmos_vtl   0:nmos_vtl
 region         Cutoff       Linear       Linear       Cutoff       Cutoff
  id         7.206e-09   -1.097e-08    6.424e-09   -4.235e-09    7.206e-09
  ibs        1.841e-23   -1.506e-22    5.878e-23   -3.548e-23    1.841e-23
  ibd       -1.110e-12    1.720e-16   -3.390e-17    1.110e-12   -1.110e-12
  vgs        2.614e-05   -1.100e+00    1.099e+00   -1.321e-04    2.636e-05
  vds        1.099e+00   -1.321e-04    2.602e-05   -1.100e+00    1.099e+00
  vbs        0.000e+00    0.000e+00    0.000e+00    0.000e+00    0.000e+00
  vth        3.382e-01   -3.936e-01    4.428e-01   -2.681e-01    3.382e-01
  vdsat      5.266e-02   -6.153e-01    4.271e-01   -5.874e-02    5.266e-02
  vod       -3.382e-01   -7.064e-01    6.571e-01    2.679e-01   -3.382e-01
  beta       1.436e-03    1.278e-04    6.634e-04    2.353e-04    1.436e-03
  gam eff    5.300e-01    4.910e-01    5.300e-01    4.910e-01    5.300e-01
  gm         1.334e-07    8.078e-09    3.102e-09    7.927e-08    1.334e-07
  gds        1.501e-08    8.305e-05    2.469e-04    1.206e-08    1.501e-08
  gmb        4.701e-08    5.624e-09    2.782e-09    2.323e-08    4.701e-08
  cdtot      6.117e-17    3.230e-16    1.586e-16    1.247e-16    6.117e-17
  cgtot      7.369e-17    3.020e-16    1.393e-16    1.518e-16    7.369e-17
  cstot      1.227e-16    2.801e-16    1.347e-16    2.492e-16    1.227e-16
  cbtot      1.395e-16    3.094e-16    1.559e-16    2.774e-16    1.395e-16
  cgs        3.603e-17    1.679e-16    7.461e-17    7.589e-17    3.603e-17
  cgd        2.298e-17    1.335e-16    6.468e-17    4.827e-17    2.298e-17



 subckt     xi10.xi2.x   xi2.xi3.xi   xi2.xi3.xi   xi2.xi3.xi   xi2.xi3.xi
 element  272:m1       273:m0       273:m1       274:m0       274:m1      
 model      0:pmos_vtl   0:nmos_vtl   0:pmos_vtl   0:nmos_vtl   0:pmos_vtl
 region         Linear       Linear       Cutoff       Cutoff       Linear
  id        -1.097e-08    5.833e-09   -4.235e-09    7.206e-09   -1.097e-08
  ibs       -1.506e-22    5.877e-23   -3.548e-23    1.841e-23   -1.506e-22
  ibd        1.720e-16   -3.078e-17    1.110e-12   -1.110e-12    1.720e-16
  vgs       -1.100e+00    1.099e+00   -1.321e-04    2.850e-05   -1.100e+00
  vds       -1.321e-04    2.363e-05   -1.100e+00    1.099e+00   -1.321e-04
  vbs        0.000e+00    0.000e+00    0.000e+00    0.000e+00    0.000e+00
  vth       -3.936e-01    4.428e-01   -2.681e-01    3.382e-01   -3.936e-01
  vdsat     -6.153e-01    4.271e-01   -5.874e-02    5.266e-02   -6.153e-01
  vod       -7.064e-01    6.571e-01    2.679e-01   -3.382e-01   -7.064e-01
  beta       1.278e-04    6.634e-04    2.353e-04    1.436e-03    1.278e-04
  gam eff    4.910e-01    5.300e-01    4.910e-01    5.300e-01    4.910e-01
  gm         8.078e-09    2.816e-09    7.927e-08    1.334e-07    8.079e-09
  gds        8.305e-05    2.469e-04    1.206e-08    1.501e-08    8.305e-05
  gmb        5.624e-09    2.526e-09    2.323e-08    4.701e-08    5.625e-09
  cdtot      3.230e-16    1.586e-16    1.247e-16    6.117e-17    3.230e-16
  cgtot      3.020e-16    1.393e-16    1.518e-16    7.369e-17    3.020e-16
  cstot      2.801e-16    1.347e-16    2.492e-16    1.227e-16    2.801e-16
  cbtot      3.094e-16    1.559e-16    2.774e-16    1.395e-16    3.094e-16
  cgs        1.679e-16    7.461e-17    7.589e-17    3.603e-17    1.679e-16
  cgd        1.335e-16    6.468e-17    4.827e-17    2.298e-17    1.335e-16



 subckt     xi2.xi2.xi   xi2.xi2.xi   xi2.xi2.xi   xi2.xi2.xi
 element  275:m0       275:m1       276:m0       276:m1      
 model      0:nmos_vtl   0:pmos_vtl   0:nmos_vtl   0:pmos_vtl
 region         Linear       Cutoff       Cutoff       Linear
  id         6.516e-09   -4.235e-09    7.206e-09   -1.097e-08
  ibs        5.878e-23   -3.548e-23    1.841e-23   -1.506e-22
  ibd       -3.439e-17    1.110e-12   -1.110e-12    1.720e-16
  vgs        1.099e+00   -1.321e-04    2.615e-05   -1.100e+00
  vds        2.639e-05   -1.100e+00    1.099e+00   -1.321e-04
  vbs        0.000e+00    0.000e+00    0.000e+00    0.000e+00
  vth        4.428e-01   -2.681e-01    3.382e-01   -3.936e-01
  vdsat      4.271e-01   -5.874e-02    5.266e-02   -6.153e-01
  vod        6.571e-01    2.679e-01   -3.382e-01   -7.064e-01
  beta       6.634e-04    2.353e-04    1.436e-03    1.278e-04
  gam eff    5.300e-01    4.910e-01    5.300e-01    4.910e-01
  gm         3.146e-09    7.927e-08    1.334e-07    8.078e-09
  gds        2.469e-04    1.206e-08    1.501e-08    8.305e-05
  gmb        2.822e-09    2.323e-08    4.701e-08    5.624e-09
  cdtot      1.586e-16    1.247e-16    6.117e-17    3.230e-16
  cgtot      1.393e-16    1.518e-16    7.369e-17    3.020e-16
  cstot      1.347e-16    2.492e-16    1.227e-16    2.801e-16
  cbtot      1.559e-16    2.774e-16    1.395e-16    3.094e-16
  cgs        7.461e-17    7.589e-17    3.603e-17    1.679e-16
  cgd        6.468e-17    4.827e-17    2.298e-17    1.335e-16




          ***** job concluded
1****** HSPICE -- I-2013.12-SP2-1 32-BIT (Jun 10 2014) RHEL32 ******            
 ******  
 **han-carlson adder - 16 bit

 ****** job statistics summary tnom=  25.000 temp= 110.000 ******
  
  
 ******  Machine Information  ******
 CPU:
 model name	: Intel(R) Xeon(R) CPU           E5603  @ 1.60GHz
 cpu MHz	: 1596.045
  
 OS:
 Linux version 2.6.32-642.4.2.el6.x86_64 (mockbuild@x86-027.build.eng.bos.redhat.com) (gcc version 4.4.7 20120313 (Red Hat 4.4.7-17) (GCC) ) #1 SMP Mon Aug 15 02:06:41 EDT 2016


  ******  HSPICE Threads Information  ******

  Command Line Threads Count :     1
  Available CPU Count        :     8
  Actual Threads Count       :     1


  ******  Circuit Statistics  ******
  # nodes       =    4012 # elements   =    1072
  # resistors   =       0 # capacitors =     155 # inductors   =       0
  # mutual_inds =       0 # vccs       =       0 # vcvs        =       0
  # cccs        =       0 # ccvs       =       0 # volt_srcs   =      33
  # curr_srcs   =       0 # diodes     =       0 # bjts        =       0
  # jfets       =       0 # mosfets    =     884 # U elements  =       0
  # T elements  =       0 # W elements =       0 # B elements  =       0
  # S elements  =       0 # P elements =       0 # va device   =       0
  # vector_srcs =       0 # N elements =       0


  ******  Runtime Statistics (seconds)  ******

  analysis           time    # points   tot. iter  conv.iter
  op point           0.12           1           7
  transient          1.96       10001         611         226 rev=        29
  readin             0.02
  errchk             0.35
  setup              0.16
  output             0.00


           peak memory used        129.46 megabytes
           total cpu time            2.61 seconds
           total elapsed time        7.70 seconds
           job started at     16:57:57 12/08/2016
           job ended   at     16:58:05 12/08/2016


 lic: Release hspice token(s) 
 lic: total license checkout elapse time:        1.51(s)
