Using: /usr/local/apps/synopsys/hspice/linux/hspice rc_lp_tran.sp
 ****** HSPICE -- I-2013.12-SP2-1 32-BIT (Jun 10 2014) RHEL32 ******            
  Copyright (C) 2014 Synopsys, Inc. All Rights Reserved.                        
  Unpublished-rights reserved under US copyright laws.
  This program is protected by law and is subject to the
  terms and conditions of the license agreement from Synopsys.
  Use of this program is your acceptance to be bound by the
  license agreement. HSPICE is the trademark of Synopsys, Inc.
  Input File: rc_lp_tran.sp                                                     
  Command line options: rc_lp_tran.sp
 lic:  
 lic: FLEXlm: v10.9.8 
 lic: USER:   niels538             HOSTNAME: ece-spiez 
 lic: HOSTID: 1803734585b4         PID:      45208 
 lic: Using FLEXlm license file: 
 lic: 27020@synopsys.cse.umn.edu 
 lic: Checkout 1 hspice 
 lic: License/Maintenance for hspice will expire on 19-dec-2016/2015.06 
 lic: 26(in_use)/50(total) FLOATING license(s) on SERVER 27020@synopsys.cse.umn.edu 
 lic:   
 Init: read install configuration file: /usr/local/apps/synopsys/hspice/meta.cfg
 scientific notation:
 a=10**-18  f=10**-15  p=10**-12  n=10**-9  u=10**-6
 m=10**-3   k=10**3    x=10**6    g=10**9 


 circuit parameter definitions
  parameter          =  value 





 constants  - tnom         kt           vt           gapsi        ni
            298.15000    4.1163e-21    25.69184m     1.11562    1.2565e+16 
  **info** (rc_lp_tran.sp:6) DC voltage reset to initial transient source value              in source        0:v1                  new dc=  0.0000D+00
  **warning** (rc_lp_tran.sp:6) pulse v1 period too small, reset to    20.00002
 **warning** (v_$v1:0) pulse rise time is  < or = zero, reset to tstep
  **warning** (rc_lp_tran.sp:5) Could not find branch element r2 ;branch output ignored
1****** HSPICE -- I-2013.12-SP2-1 32-BIT (Jun 10 2014) RHEL32 ******            
 ******  
 a simple ac run

 ****** circuit element summary tnom=  25.000 temp=  25.000 ******


 **** resistors

  
  
                             
 element name        0:r1    
 node1               0:1     
 node2               0:2     
 model                       
 res eff             1.0000k 
 tc1                 0.      
 tc2                 0.      
 scale               1.0000  
 m                   1.0000  
 ac                  1.0000k 
 temp               25.0000  
 l                   0.      
 w                   0.      
 cap                 0.      
 noise            1.000e+00  


 **** capacitors
  
  
                             
 element name        0:c1    
 node1               0:2     
 node2               0:0     
 model                       
 cap eff             1.0000u 
 tc1                 0.      
 tc2                 0.      
 scale               1.0000  
 ic                  0.      
 m                   1.0000  
 w                   0.      
 l                   0.      
 temp               25.0000  


 **** independent sources

     name         node1        node2      dc volt    ac mag    ac phase    type
  v1  1                 0                    0.         0.         0.      pulse
             initial value     0.     
             pulsed value.     1.0000 
             delay time...     0.     
             risetime.....    10.0000u
             falltime.....    20.0000 
             width........    10.0000u
             period.......    20.0000 

  
1****** HSPICE -- I-2013.12-SP2-1 32-BIT (Jun 10 2014) RHEL32 ******            
 ******  
 a simple ac run

 ****** element node table
                          
 0                c1 v1   
 1                r1 v1   
 2                r1 c1   
 **warning** (v_$v1:0) pulse rise time is  < or = zero, reset to tstep
 *****************************************************************
 ******  option summary
 ******
 runlvl  = 3         bypass  = 2         
 **info** dc convergence successful at Newton-Raphson method 
1****** HSPICE -- I-2013.12-SP2-1 32-BIT (Jun 10 2014) RHEL32 ******            
 ******  
 a simple ac run

 ****** operating point information tnom=  25.000 temp=  25.000 ******
 ****** operating point status is all       simulation time is     0.     
    node    =voltage      node    =voltage

 +0:1       =   0.      0:2       =   0.     


 **** voltage sources

 subckt             
 element  0:v1      
  volts      0.     
  current    0.     
  power      0.     

     total voltage source power dissipation=    0.            watts



 **** resistors

 subckt             
 element  0:r1      
  r value    1.0000k
  v drop     0.     
  current    0.     
  power      0.     

 ******  
 a simple ac run

 ****** transient analysis tnom=  25.000 temp=  25.000 ******
x

        time    voltage      voltage    
                     1            2     
    0.            0.           0.       
   10.00000u      1.0000       5.6001m  
   20.00000u      1.0000      15.4938m  
   30.00000u    999.9995m     25.2792m  
   40.00000u    999.9990m     34.9131m  
   50.00000u    999.9985m     44.4809m  
   60.00000u    999.9980m     54.0487m  
   70.00000u    999.9975m     63.2616m  
   80.00000u    999.9970m     72.2453m  
   90.00000u    999.9965m     81.2290m  
  100.00000u    999.9960m     90.2127m  
  110.00000u    999.9955m     99.1964m  
  120.00000u    999.9950m    108.1801m  
  130.00000u    999.9945m    117.1638m  
  140.00000u    999.9940m    126.1475m  
  150.00000u    999.9935m    135.1313m  
  160.00000u    999.9930m    144.1150m  
  170.00000u    999.9925m    151.7426m  
  180.00000u    999.9920m    159.1342m  
  190.00000u    999.9915m    166.5257m  
  200.00000u    999.9910m    173.9173m  
  210.00000u    999.9905m    181.3089m  
  220.00000u    999.9900m    188.7005m  
  230.00000u    999.9895m    196.0921m  
  240.00000u    999.9890m    203.4837m  
  250.00000u    999.9885m    210.8753m  
  260.00000u    999.9880m    218.2669m  
  270.00000u    999.9875m    225.6584m  
  280.00000u    999.9870m    233.0500m  
  290.00000u    999.9865m    240.4416m  
  300.00000u    999.9860m    247.8332m  
  310.00000u    999.9855m    255.2248m  
  320.00000u    999.9850m    262.6164m  
  330.00000u    999.9845m    270.0080m  
  340.00000u    999.9840m    277.3996m  
  350.00000u    999.9835m    284.7911m  
  360.00000u    999.9830m    292.1827m  
  370.00000u    999.9825m    299.5743m  
  380.00000u    999.9820m    306.9659m  
  390.00000u    999.9815m    314.3575m  
  400.00000u    999.9810m    321.7491m  
  410.00000u    999.9805m    329.1407m  
  420.00000u    999.9800m    336.5323m  
  430.00000u    999.9795m    343.9238m  
  440.00000u    999.9790m    351.3154m  
  450.00000u    999.9785m    358.7070m  
  460.00000u    999.9780m    366.0986m  
  470.00000u    999.9775m    373.4902m  
  480.00000u    999.9770m    379.5945m  
  490.00000u    999.9765m    384.9511m  
  500.00000u    999.9760m    390.3077m  
  510.00000u    999.9755m    395.6643m  
  520.00000u    999.9750m    401.0209m  
  530.00000u    999.9745m    406.3775m  
  540.00000u    999.9740m    411.7341m  
  550.00000u    999.9735m    417.0907m  
  560.00000u    999.9730m    422.4473m  
  570.00000u    999.9725m    427.8039m  
  580.00000u    999.9720m    433.1605m  
  590.00000u    999.9715m    438.5171m  
  600.00000u    999.9710m    443.8737m  
  610.00000u    999.9705m    449.2303m  
  620.00000u    999.9700m    454.5869m  
  630.00000u    999.9695m    459.9435m  
  640.00000u    999.9690m    465.3001m  
  650.00000u    999.9685m    470.6567m  
  660.00000u    999.9680m    476.0133m  
  670.00000u    999.9675m    481.3699m  
  680.00000u    999.9670m    486.7264m  
  690.00000u    999.9665m    492.0830m  
  700.00000u    999.9660m    497.4396m  
  710.00000u    999.9655m    502.7962m  
  720.00000u    999.9650m    508.1528m  
  730.00000u    999.9645m    513.5094m  
  740.00000u    999.9640m    518.8660m  
  750.00000u    999.9635m    524.2226m  
  760.00000u    999.9630m    529.5792m  
  770.00000u    999.9625m    534.9358m  
  780.00000u    999.9620m    540.2924m  
  790.00000u    999.9615m    545.6490m  
  800.00000u    999.9610m    551.0056m  
  810.00000u    999.9605m    555.1878m  
  820.00000u    999.9600m    558.9516m  
  830.00000u    999.9595m    562.7154m  
  840.00000u    999.9590m    566.4792m  
  850.00000u    999.9585m    570.2430m  
  860.00000u    999.9580m    574.0069m  
  870.00000u    999.9575m    577.7707m  
  880.00000u    999.9570m    581.5345m  
  890.00000u    999.9565m    585.2983m  
  900.00000u    999.9560m    589.0621m  
  910.00000u    999.9555m    592.8259m  
  920.00000u    999.9550m    596.5897m  
  930.00000u    999.9545m    600.3535m  
  940.00000u    999.9540m    604.1173m  
  950.00000u    999.9535m    607.8812m  
  960.00000u    999.9530m    611.6450m  
  970.00000u    999.9525m    615.4088m  
  980.00000u    999.9520m    619.1726m  
  990.00000u    999.9515m    622.9364m  
    1.00000m    999.9510m    626.7002m  
    1.01000m    999.9505m    630.4640m  
    1.02000m    999.9500m    634.2278m  
    1.03000m    999.9495m    637.9917m  
    1.04000m    999.9490m    641.7555m  
    1.05000m    999.9485m    645.5193m  
    1.06000m    999.9480m    649.2831m  
    1.07000m    999.9475m    653.0469m  
    1.08000m    999.9470m    656.8107m  
    1.09000m    999.9465m    660.5745m  
    1.10000m    999.9460m    664.3383m  
    1.11000m    999.9455m    668.1022m  
    1.12000m    999.9450m    671.8660m  
    1.13000m    999.9445m    675.6298m  
    1.14000m    999.9440m    679.3936m  
    1.15000m    999.9435m    683.1574m  
    1.16000m    999.9430m    686.9212m  
    1.17000m    999.9425m    690.6850m  
    1.18000m    999.9420m    694.4488m  
    1.19000m    999.9415m    697.1127m  
    1.20000m    999.9410m    699.6884m  
    1.21000m    999.9405m    702.2642m  
    1.22000m    999.9400m    704.8399m  
    1.23000m    999.9395m    707.4157m  
    1.24000m    999.9390m    709.9914m  
    1.25000m    999.9385m    712.5672m  
    1.26000m    999.9380m    715.1429m  
    1.27000m    999.9375m    717.7187m  
    1.28000m    999.9370m    720.2944m  
    1.29000m    999.9365m    722.8702m  
    1.30000m    999.9360m    725.4459m  
    1.31000m    999.9355m    728.0217m  
    1.32000m    999.9350m    730.5974m  
    1.33000m    999.9345m    733.1732m  
    1.34000m    999.9340m    735.7489m  
    1.35000m    999.9335m    738.3247m  
    1.36000m    999.9330m    740.9004m  
    1.37000m    999.9325m    743.4762m  
    1.38000m    999.9320m    746.0519m  
    1.39000m    999.9315m    748.6277m  
    1.40000m    999.9310m    751.2034m  
    1.41000m    999.9305m    753.7792m  
    1.42000m    999.9300m    756.3549m  
    1.43000m    999.9295m    758.9307m  
    1.44000m    999.9290m    761.5064m  
    1.45000m    999.9285m    764.0822m  
    1.46000m    999.9280m    766.6579m  
    1.47000m    999.9275m    769.2337m  
    1.48000m    999.9270m    771.8094m  
    1.49000m    999.9265m    774.3852m  
    1.50000m    999.9260m    776.9610m  
    1.51000m    999.9255m    779.5367m  
    1.52000m    999.9250m    782.1125m  
    1.53000m    999.9245m    784.6882m  
    1.54000m    999.9240m    787.2640m  
    1.55000m    999.9235m    789.8397m  
    1.56000m    999.9230m    791.6208m  
    1.57000m    999.9225m    793.3536m  
    1.58000m    999.9220m    795.0863m  
    1.59000m    999.9215m    796.8191m  
    1.60000m    999.9210m    798.5519m  
    1.61000m    999.9205m    800.2847m  
    1.62000m    999.9200m    802.0175m  
    1.63000m    999.9195m    803.7502m  
    1.64000m    999.9190m    805.4830m  
    1.65000m    999.9185m    807.2158m  
    1.66000m    999.9180m    808.9486m  
    1.67000m    999.9175m    810.6813m  
    1.68000m    999.9170m    812.4141m  
    1.69000m    999.9165m    814.1469m  
    1.70000m    999.9160m    815.8797m  
    1.71000m    999.9155m    817.6124m  
    1.72000m    999.9150m    819.3452m  
    1.73000m    999.9145m    821.0780m  
    1.74000m    999.9140m    822.8108m  
    1.75000m    999.9135m    824.5435m  
    1.76000m    999.9130m    826.2763m  
    1.77000m    999.9125m    828.0091m  
    1.78000m    999.9120m    829.7419m  
    1.79000m    999.9115m    831.4746m  
    1.80000m    999.9110m    833.2074m  
    1.81000m    999.9105m    834.9402m  
    1.82000m    999.9100m    836.6730m  
    1.83000m    999.9095m    838.4057m  
    1.84000m    999.9090m    840.1385m  
    1.85000m    999.9085m    841.8713m  
    1.86000m    999.9080m    843.6041m  
    1.87000m    999.9075m    845.3368m  
    1.88000m    999.9070m    847.0696m  
    1.89000m    999.9065m    848.8024m  
    1.90000m    999.9060m    850.5352m  
    1.91000m    999.9055m    852.2680m  
    1.92000m    999.9050m    854.0007m  
    1.93000m    999.9045m    855.7335m  
    1.94000m    999.9040m    857.4663m  
    1.95000m    999.9035m    859.1991m  
    1.96000m    999.9030m    860.9318m  
    1.97000m    999.9025m    862.6646m  
    1.98000m    999.9020m    864.0000m  
    1.99000m    999.9015m    865.1147m  
    2.00000m    999.9010m    866.2294m  
    2.01000m    999.9005m    867.3441m  
    2.02000m    999.9000m    868.4588m  
    2.03000m    999.8995m    869.5736m  
    2.04000m    999.8990m    870.6883m  
    2.05000m    999.8985m    871.8030m  
    2.06000m    999.8980m    872.9177m  
    2.07000m    999.8975m    874.0324m  
    2.08000m    999.8970m    875.1471m  
    2.09000m    999.8965m    876.2618m  
    2.10000m    999.8960m    877.3765m  
    2.11000m    999.8955m    878.4912m  
    2.12000m    999.8950m    879.6060m  
    2.13000m    999.8945m    880.7207m  
    2.14000m    999.8940m    881.8354m  
    2.15000m    999.8935m    882.9501m  
    2.16000m    999.8930m    884.0648m  
    2.17000m    999.8925m    885.1795m  
    2.18000m    999.8920m    886.2942m  
    2.19000m    999.8915m    887.4089m  
    2.20000m    999.8910m    888.5236m  
    2.21000m    999.8905m    889.6384m  
    2.22000m    999.8900m    890.7531m  
    2.23000m    999.8895m    891.8678m  
    2.24000m    999.8890m    892.9825m  
    2.25000m    999.8885m    894.0972m  
    2.26000m    999.8880m    895.2119m  
    2.27000m    999.8875m    896.3266m  
    2.28000m    999.8870m    897.4413m  
    2.29000m    999.8865m    898.5560m  
    2.30000m    999.8860m    899.6708m  
    2.31000m    999.8855m    900.7855m  
    2.32000m    999.8850m    901.9002m  
    2.33000m    999.8845m    903.0149m  
    2.34000m    999.8840m    904.1296m  
    2.35000m    999.8835m    905.2443m  
    2.36000m    999.8830m    906.3590m  
    2.37000m    999.8825m    907.4737m  
    2.38000m    999.8820m    908.5884m  
    2.39000m    999.8815m    909.7032m  
    2.40000m    999.8810m    910.8179m  
    2.41000m    999.8805m    911.9326m  
    2.42000m    999.8800m    913.0473m  
    2.43000m    999.8795m    913.9316m  
    2.44000m    999.8790m    914.6221m  
    2.45000m    999.8785m    915.3126m  
    2.46000m    999.8780m    916.0030m  
    2.47000m    999.8775m    916.6935m  
    2.48000m    999.8770m    917.3840m  
    2.49000m    999.8765m    918.0745m  
    2.50000m    999.8760m    918.7650m  
    2.51000m    999.8755m    919.4555m  
    2.52000m    999.8750m    920.1460m  
    2.53000m    999.8745m    920.8364m  
    2.54000m    999.8740m    921.5269m  
    2.55000m    999.8735m    922.2174m  
    2.56000m    999.8730m    922.9079m  
    2.57000m    999.8725m    923.5984m  
    2.58000m    999.8720m    924.2889m  
    2.59000m    999.8715m    924.9794m  
    2.60000m    999.8710m    925.6698m  
    2.61000m    999.8705m    926.3603m  
    2.62000m    999.8700m    927.0508m  
    2.63000m    999.8695m    927.7413m  
    2.64000m    999.8690m    928.4318m  
    2.65000m    999.8685m    929.1223m  
    2.66000m    999.8680m    929.8128m  
    2.67000m    999.8675m    930.5032m  
    2.68000m    999.8670m    931.1937m  
    2.69000m    999.8665m    931.8842m  
    2.70000m    999.8660m    932.5747m  
    2.71000m    999.8655m    933.2652m  
    2.72000m    999.8650m    933.9557m  
    2.73000m    999.8645m    934.6462m  
    2.74000m    999.8640m    935.3366m  
    2.75000m    999.8635m    936.0271m  
    2.76000m    999.8630m    936.7176m  
    2.77000m    999.8625m    937.4081m  
    2.78000m    999.8620m    938.0986m  
    2.79000m    999.8615m    938.7891m  
    2.80000m    999.8610m    939.4796m  
    2.81000m    999.8605m    940.1700m  
    2.82000m    999.8600m    940.8605m  
    2.83000m    999.8595m    941.5510m  
    2.84000m    999.8590m    942.2415m  
    2.85000m    999.8585m    942.9320m  
    2.86000m    999.8580m    943.6225m  
    2.87000m    999.8575m    944.3130m  
    2.88000m    999.8570m    945.0034m  
    2.89000m    999.8565m    945.6939m  
    2.90000m    999.8560m    946.3844m  
    2.91000m    999.8555m    947.0749m  
    2.92000m    999.8550m    947.7654m  
    2.93000m    999.8545m    948.3058m  
    2.94000m    999.8540m    948.7198m  
    2.95000m    999.8535m    949.1339m  
    2.96000m    999.8530m    949.5480m  
    2.97000m    999.8525m    949.9621m  
    2.98000m    999.8520m    950.3762m  
    2.99000m    999.8515m    950.7903m  
    3.00000m    999.8510m    951.2044m  
    3.01000m    999.8505m    951.6185m  
    3.02000m    999.8500m    952.0326m  
    3.03000m    999.8495m    952.4467m  
    3.04000m    999.8490m    952.8608m  
    3.05000m    999.8485m    953.2749m  
    3.06000m    999.8480m    953.6889m  
    3.07000m    999.8475m    954.1030m  
    3.08000m    999.8470m    954.5171m  
    3.09000m    999.8465m    954.9312m  
    3.10000m    999.8460m    955.3453m  
    3.11000m    999.8455m    955.7594m  
    3.12000m    999.8450m    956.1735m  
    3.13000m    999.8445m    956.5876m  
    3.14000m    999.8440m    957.0017m  
    3.15000m    999.8435m    957.4158m  
    3.16000m    999.8430m    957.8299m  
    3.17000m    999.8425m    958.2439m  
    3.18000m    999.8420m    958.6580m  
    3.19000m    999.8415m    959.0721m  
    3.20000m    999.8410m    959.4862m  
    3.21000m    999.8405m    959.9003m  
    3.22000m    999.8400m    960.3144m  
    3.23000m    999.8395m    960.7285m  
    3.24000m    999.8390m    961.1426m  
    3.25000m    999.8385m    961.5567m  
    3.26000m    999.8380m    961.9708m  
    3.27000m    999.8375m    962.3849m  
    3.28000m    999.8370m    962.7990m  
    3.29000m    999.8365m    963.2130m  
    3.30000m    999.8360m    963.6271m  
    3.31000m    999.8355m    964.0412m  
    3.32000m    999.8350m    964.4553m  
    3.33000m    999.8345m    964.8694m  
    3.34000m    999.8340m    965.2835m  
    3.35000m    999.8335m    965.6976m  
    3.36000m    999.8330m    966.1117m  
    3.37000m    999.8325m    966.5258m  
    3.38000m    999.8320m    966.9399m  
    3.39000m    999.8315m    967.3540m  
    3.40000m    999.8310m    967.7680m  
    3.41000m    999.8305m    968.1821m  
    3.42000m    999.8300m    968.5962m  
    3.43000m    999.8295m    968.9203m  
    3.44000m    999.8290m    969.1685m  
    3.45000m    999.8285m    969.4168m  
    3.46000m    999.8280m    969.6650m  
    3.47000m    999.8275m    969.9133m  
    3.48000m    999.8270m    970.1615m  
    3.49000m    999.8265m    970.4098m  
    3.50000m    999.8260m    970.6580m  
    3.51000m    999.8255m    970.9063m  
    3.52000m    999.8250m    971.1545m  
    3.53000m    999.8245m    971.4028m  
    3.54000m    999.8240m    971.6511m  
    3.55000m    999.8235m    971.8993m  
    3.56000m    999.8230m    972.1476m  
    3.57000m    999.8225m    972.3958m  
    3.58000m    999.8220m    972.6441m  
    3.59000m    999.8215m    972.8923m  
    3.60000m    999.8210m    973.1406m  
    3.61000m    999.8205m    973.3888m  
    3.62000m    999.8200m    973.6371m  
    3.63000m    999.8195m    973.8853m  
    3.64000m    999.8190m    974.1336m  
    3.65000m    999.8185m    974.3819m  
    3.66000m    999.8180m    974.6301m  
    3.67000m    999.8175m    974.8784m  
    3.68000m    999.8170m    975.1266m  
    3.69000m    999.8165m    975.3749m  
    3.70000m    999.8160m    975.6231m  
    3.71000m    999.8155m    975.8714m  
    3.72000m    999.8150m    976.1196m  
    3.73000m    999.8145m    976.3679m  
    3.74000m    999.8140m    976.6162m  
    3.75000m    999.8135m    976.8644m  
    3.76000m    999.8130m    977.1127m  
    3.77000m    999.8125m    977.3609m  
    3.78000m    999.8120m    977.6092m  
    3.79000m    999.8115m    977.8574m  
    3.80000m    999.8110m    978.1057m  
    3.81000m    999.8105m    978.3539m  
    3.82000m    999.8100m    978.6022m  
    3.83000m    999.8095m    978.8504m  
    3.84000m    999.8090m    979.0987m  
    3.85000m    999.8085m    979.3470m  
    3.86000m    999.8080m    979.5952m  
    3.87000m    999.8075m    979.8435m  
    3.88000m    999.8070m    980.0917m  
    3.89000m    999.8065m    980.3400m  
    3.90000m    999.8060m    980.5882m  
    3.91000m    999.8055m    980.8365m  
    3.92000m    999.8050m    981.0847m  
    3.93000m    999.8045m    981.2790m  
    3.94000m    999.8040m    981.4277m  
    3.95000m    999.8035m    981.5765m  
    3.96000m    999.8030m    981.7252m  
    3.97000m    999.8025m    981.8740m  
    3.98000m    999.8020m    982.0227m  
    3.99000m    999.8015m    982.1715m  
    4.00000m    999.8010m    982.3202m  
    4.01000m    999.8005m    982.4690m  
    4.02000m    999.8000m    982.6177m  
    4.03000m    999.7995m    982.7665m  
    4.04000m    999.7990m    982.9152m  
    4.05000m    999.7985m    983.0640m  
    4.06000m    999.7980m    983.2127m  
    4.07000m    999.7975m    983.3615m  
    4.08000m    999.7970m    983.5102m  
    4.09000m    999.7965m    983.6590m  
    4.10000m    999.7960m    983.8078m  
    4.11000m    999.7955m    983.9565m  
    4.12000m    999.7950m    984.1053m  
    4.13000m    999.7945m    984.2540m  
    4.14000m    999.7940m    984.4028m  
    4.15000m    999.7935m    984.5515m  
    4.16000m    999.7930m    984.7003m  
    4.17000m    999.7925m    984.8490m  
    4.18000m    999.7920m    984.9978m  
    4.19000m    999.7915m    985.1465m  
    4.20000m    999.7910m    985.2953m  
    4.21000m    999.7905m    985.4440m  
    4.22000m    999.7900m    985.5928m  
    4.23000m    999.7895m    985.7415m  
    4.24000m    999.7890m    985.8903m  
    4.25000m    999.7885m    986.0390m  
    4.26000m    999.7880m    986.1878m  
    4.27000m    999.7875m    986.3365m  
    4.28000m    999.7870m    986.4853m  
    4.29000m    999.7865m    986.6341m  
    4.30000m    999.7860m    986.7828m  
    4.31000m    999.7855m    986.9316m  
    4.32000m    999.7850m    987.0803m  
    4.33000m    999.7845m    987.2291m  
    4.34000m    999.7840m    987.3778m  
    4.35000m    999.7835m    987.5266m  
    4.36000m    999.7830m    987.6753m  
    4.37000m    999.7825m    987.8241m  
    4.38000m    999.7820m    987.9728m  
    4.39000m    999.7815m    988.1216m  
    4.40000m    999.7810m    988.2703m  
    4.41000m    999.7805m    988.4191m  
    4.42000m    999.7800m    988.5678m  
    4.43000m    999.7795m    988.6842m  
    4.44000m    999.7790m    988.7732m  
    4.45000m    999.7785m    988.8623m  
    4.46000m    999.7780m    988.9513m  
    4.47000m    999.7775m    989.0404m  
    4.48000m    999.7770m    989.1294m  
    4.49000m    999.7765m    989.2185m  
    4.50000m    999.7760m    989.3075m  
    4.51000m    999.7755m    989.3966m  
    4.52000m    999.7750m    989.4856m  
    4.53000m    999.7745m    989.5747m  
    4.54000m    999.7740m    989.6637m  
    4.55000m    999.7735m    989.7528m  
    4.56000m    999.7730m    989.8418m  
    4.57000m    999.7725m    989.9309m  
    4.58000m    999.7720m    990.0199m  
    4.59000m    999.7715m    990.1090m  
    4.60000m    999.7710m    990.1981m  
    4.61000m    999.7705m    990.2871m  
    4.62000m    999.7700m    990.3762m  
    4.63000m    999.7695m    990.4652m  
    4.64000m    999.7690m    990.5543m  
    4.65000m    999.7685m    990.6433m  
    4.66000m    999.7680m    990.7324m  
    4.67000m    999.7675m    990.8214m  
    4.68000m    999.7670m    990.9105m  
    4.69000m    999.7665m    990.9995m  
    4.70000m    999.7660m    991.0886m  
    4.71000m    999.7655m    991.1776m  
    4.72000m    999.7650m    991.2667m  
    4.73000m    999.7645m    991.3557m  
    4.74000m    999.7640m    991.4448m  
    4.75000m    999.7635m    991.5338m  
    4.76000m    999.7630m    991.6229m  
    4.77000m    999.7625m    991.7119m  
    4.78000m    999.7620m    991.8010m  
    4.79000m    999.7615m    991.8900m  
    4.80000m    999.7610m    991.9791m  
    4.81000m    999.7605m    992.0681m  
    4.82000m    999.7600m    992.1572m  
    4.83000m    999.7595m    992.2462m  
    4.84000m    999.7590m    992.3353m  
    4.85000m    999.7585m    992.4243m  
    4.86000m    999.7580m    992.5134m  
    4.87000m    999.7575m    992.6024m  
    4.88000m    999.7570m    992.6915m  
    4.89000m    999.7565m    992.7806m  
    4.90000m    999.7560m    992.8696m  
    4.91000m    999.7555m    992.9587m  
    4.92000m    999.7550m    993.0477m  
    4.93000m    999.7545m    993.1173m  
    4.94000m    999.7540m    993.1705m  
    4.95000m    999.7535m    993.2238m  
    4.96000m    999.7530m    993.2770m  
    4.97000m    999.7525m    993.3302m  
    4.98000m    999.7520m    993.3835m  
    4.99000m    999.7515m    993.4367m  
    5.00000m    999.7510m    993.4899m  
    5.01000m    999.7505m    993.5432m  
    5.02000m    999.7500m    993.5964m  
    5.03000m    999.7495m    993.6496m  
    5.04000m    999.7490m    993.7028m  
    5.05000m    999.7485m    993.7561m  
    5.06000m    999.7480m    993.8093m  
    5.07000m    999.7475m    993.8625m  
    5.08000m    999.7470m    993.9158m  
    5.09000m    999.7465m    993.9690m  
    5.10000m    999.7460m    994.0222m  
    5.11000m    999.7455m    994.0755m  
    5.12000m    999.7450m    994.1287m  
    5.13000m    999.7445m    994.1819m  
    5.14000m    999.7440m    994.2352m  
    5.15000m    999.7435m    994.2884m  
    5.16000m    999.7430m    994.3416m  
    5.17000m    999.7425m    994.3948m  
    5.18000m    999.7420m    994.4481m  
    5.19000m    999.7415m    994.5013m  
    5.20000m    999.7410m    994.5545m  
    5.21000m    999.7405m    994.6078m  
    5.22000m    999.7400m    994.6610m  
    5.23000m    999.7395m    994.7142m  
    5.24000m    999.7390m    994.7675m  
    5.25000m    999.7385m    994.8207m  
    5.26000m    999.7380m    994.8739m  
    5.27000m    999.7375m    994.9272m  
    5.28000m    999.7370m    994.9804m  
    5.29000m    999.7365m    995.0336m  
    5.30000m    999.7360m    995.0869m  
    5.31000m    999.7355m    995.1401m  
    5.32000m    999.7350m    995.1933m  
    5.33000m    999.7345m    995.2465m  
    5.34000m    999.7340m    995.2998m  
    5.35000m    999.7335m    995.3530m  
    5.36000m    999.7330m    995.4062m  
    5.37000m    999.7325m    995.4595m  
    5.38000m    999.7320m    995.5127m  
    5.39000m    999.7315m    995.5659m  
    5.40000m    999.7310m    995.6192m  
    5.41000m    999.7305m    995.6724m  
    5.42000m    999.7300m    995.7256m  
    5.43000m    999.7295m    995.7672m  
    5.44000m    999.7290m    995.7989m  
    5.45000m    999.7285m    995.8307m  
    5.46000m    999.7280m    995.8624m  
    5.47000m    999.7275m    995.8941m  
    5.48000m    999.7270m    995.9259m  
    5.49000m    999.7265m    995.9576m  
    5.50000m    999.7260m    995.9894m  
    5.51000m    999.7255m    996.0211m  
    5.52000m    999.7250m    996.0528m  
    5.53000m    999.7245m    996.0846m  
    5.54000m    999.7240m    996.1163m  
    5.55000m    999.7235m    996.1480m  
    5.56000m    999.7230m    996.1798m  
    5.57000m    999.7225m    996.2115m  
    5.58000m    999.7220m    996.2433m  
    5.59000m    999.7215m    996.2750m  
    5.60000m    999.7210m    996.3067m  
    5.61000m    999.7205m    996.3385m  
    5.62000m    999.7200m    996.3702m  
    5.63000m    999.7195m    996.4020m  
    5.64000m    999.7190m    996.4337m  
    5.65000m    999.7185m    996.4654m  
    5.66000m    999.7180m    996.4972m  
    5.67000m    999.7175m    996.5289m  
    5.68000m    999.7170m    996.5606m  
    5.69000m    999.7165m    996.5924m  
    5.70000m    999.7160m    996.6241m  
    5.71000m    999.7155m    996.6559m  
    5.72000m    999.7150m    996.6876m  
    5.73000m    999.7145m    996.7193m  
    5.74000m    999.7140m    996.7511m  
    5.75000m    999.7135m    996.7828m  
    5.76000m    999.7130m    996.8146m  
    5.77000m    999.7125m    996.8463m  
    5.78000m    999.7120m    996.8780m  
    5.79000m    999.7115m    996.9098m  
    5.80000m    999.7110m    996.9415m  
    5.81000m    999.7105m    996.9732m  
    5.82000m    999.7100m    997.0050m  
    5.83000m    999.7095m    997.0367m  
    5.84000m    999.7090m    997.0685m  
    5.85000m    999.7085m    997.1002m  
    5.86000m    999.7080m    997.1319m  
    5.87000m    999.7075m    997.1637m  
    5.88000m    999.7070m    997.1954m  
    5.89000m    999.7065m    997.2272m  
    5.90000m    999.7060m    997.2589m  
    5.91000m    999.7055m    997.2906m  
    5.92000m    999.7050m    997.3224m  
    5.93000m    999.7045m    997.3471m  
    5.94000m    999.7040m    997.3660m  
    5.95000m    999.7035m    997.3848m  
    5.96000m    999.7030m    997.4036m  
    5.97000m    999.7025m    997.4225m  
    5.98000m    999.7020m    997.4413m  
    5.99000m    999.7015m    997.4602m  
    6.00000m    999.7010m    997.4790m  
    6.01000m    999.7005m    997.4979m  
    6.02000m    999.7000m    997.5167m  
    6.03000m    999.6995m    997.5355m  
    6.04000m    999.6990m    997.5544m  
    6.05000m    999.6985m    997.5732m  
    6.06000m    999.6980m    997.5921m  
    6.07000m    999.6975m    997.6109m  
    6.08000m    999.6970m    997.6298m  
    6.09000m    999.6965m    997.6486m  
    6.10000m    999.6960m    997.6674m  
    6.11000m    999.6955m    997.6863m  
    6.12000m    999.6950m    997.7051m  
    6.13000m    999.6945m    997.7240m  
    6.14000m    999.6940m    997.7428m  
    6.15000m    999.6935m    997.7617m  
    6.16000m    999.6930m    997.7805m  
    6.17000m    999.6925m    997.7993m  
    6.18000m    999.6920m    997.8182m  
    6.19000m    999.6915m    997.8370m  
    6.20000m    999.6910m    997.8559m  
    6.21000m    999.6905m    997.8747m  
    6.22000m    999.6900m    997.8936m  
    6.23000m    999.6895m    997.9124m  
    6.24000m    999.6890m    997.9312m  
    6.25000m    999.6885m    997.9501m  
    6.26000m    999.6880m    997.9689m  
    6.27000m    999.6875m    997.9878m  
    6.28000m    999.6870m    998.0066m  
    6.29000m    999.6865m    998.0255m  
    6.30000m    999.6860m    998.0443m  
    6.31000m    999.6855m    998.0631m  
    6.32000m    999.6850m    998.0820m  
    6.33000m    999.6845m    998.1008m  
    6.34000m    999.6840m    998.1197m  
    6.35000m    999.6835m    998.1385m  
    6.36000m    999.6830m    998.1574m  
    6.37000m    999.6825m    998.1762m  
    6.38000m    999.6820m    998.1951m  
    6.39000m    999.6815m    998.2139m  
    6.40000m    999.6810m    998.2327m  
    6.41000m    999.6805m    998.2516m  
    6.42000m    999.6800m    998.2704m  
    6.43000m    999.6795m    998.2851m  
    6.44000m    999.6790m    998.2962m  
    6.45000m    999.6785m    998.3073m  
    6.46000m    999.6780m    998.3184m  
    6.47000m    999.6775m    998.3295m  
    6.48000m    999.6770m    998.3406m  
    6.49000m    999.6765m    998.3517m  
    6.50000m    999.6760m    998.3628m  
    6.51000m    999.6755m    998.3739m  
    6.52000m    999.6750m    998.3850m  
    6.53000m    999.6745m    998.3961m  
    6.54000m    999.6740m    998.4072m  
    6.55000m    999.6735m    998.4183m  
    6.56000m    999.6730m    998.4294m  
    6.57000m    999.6725m    998.4405m  
    6.58000m    999.6720m    998.4517m  
    6.59000m    999.6715m    998.4628m  
    6.60000m    999.6710m    998.4739m  
    6.61000m    999.6705m    998.4850m  
    6.62000m    999.6700m    998.4961m  
    6.63000m    999.6695m    998.5072m  
    6.64000m    999.6690m    998.5183m  
    6.65000m    999.6685m    998.5294m  
    6.66000m    999.6680m    998.5405m  
    6.67000m    999.6675m    998.5516m  
    6.68000m    999.6670m    998.5627m  
    6.69000m    999.6665m    998.5738m  
    6.70000m    999.6660m    998.5849m  
    6.71000m    999.6655m    998.5960m  
    6.72000m    999.6650m    998.6071m  
    6.73000m    999.6645m    998.6182m  
    6.74000m    999.6640m    998.6293m  
    6.75000m    999.6635m    998.6405m  
    6.76000m    999.6630m    998.6516m  
    6.77000m    999.6625m    998.6627m  
    6.78000m    999.6620m    998.6738m  
    6.79000m    999.6615m    998.6849m  
    6.80000m    999.6610m    998.6960m  
    6.81000m    999.6605m    998.7071m  
    6.82000m    999.6600m    998.7182m  
    6.83000m    999.6595m    998.7293m  
    6.84000m    999.6590m    998.7404m  
    6.85000m    999.6585m    998.7515m  
    6.86000m    999.6580m    998.7626m  
    6.87000m    999.6575m    998.7737m  
    6.88000m    999.6570m    998.7848m  
    6.89000m    999.6565m    998.7959m  
    6.90000m    999.6560m    998.8070m  
    6.91000m    999.6555m    998.8181m  
    6.92000m    999.6550m    998.8293m  
    6.93000m    999.6545m    998.8378m  
    6.94000m    999.6540m    998.8443m  
    6.95000m    999.6535m    998.8508m  
    6.96000m    999.6530m    998.8572m  
    6.97000m    999.6525m    998.8637m  
    6.98000m    999.6520m    998.8702m  
    6.99000m    999.6515m    998.8766m  
    7.00000m    999.6510m    998.8831m  
    7.01000m    999.6505m    998.8895m  
    7.02000m    999.6500m    998.8960m  
    7.03000m    999.6495m    998.9025m  
    7.04000m    999.6490m    998.9089m  
    7.05000m    999.6485m    998.9154m  
    7.06000m    999.6480m    998.9219m  
    7.07000m    999.6475m    998.9283m  
    7.08000m    999.6470m    998.9348m  
    7.09000m    999.6465m    998.9413m  
    7.10000m    999.6460m    998.9477m  
    7.11000m    999.6455m    998.9542m  
    7.12000m    999.6450m    998.9606m  
    7.13000m    999.6445m    998.9671m  
    7.14000m    999.6440m    998.9736m  
    7.15000m    999.6435m    998.9800m  
    7.16000m    999.6430m    998.9865m  
    7.17000m    999.6425m    998.9930m  
    7.18000m    999.6420m    998.9994m  
    7.19000m    999.6415m    999.0059m  
    7.20000m    999.6410m    999.0124m  
    7.21000m    999.6405m    999.0188m  
    7.22000m    999.6400m    999.0253m  
    7.23000m    999.6395m    999.0317m  
    7.24000m    999.6390m    999.0382m  
    7.25000m    999.6385m    999.0447m  
    7.26000m    999.6380m    999.0511m  
    7.27000m    999.6375m    999.0576m  
    7.28000m    999.6370m    999.0641m  
    7.29000m    999.6365m    999.0705m  
    7.30000m    999.6360m    999.0770m  
    7.31000m    999.6355m    999.0835m  
    7.32000m    999.6350m    999.0899m  
    7.33000m    999.6345m    999.0964m  
    7.34000m    999.6340m    999.1028m  
    7.35000m    999.6335m    999.1093m  
    7.36000m    999.6330m    999.1158m  
    7.37000m    999.6325m    999.1222m  
    7.38000m    999.6320m    999.1287m  
    7.39000m    999.6315m    999.1352m  
    7.40000m    999.6310m    999.1416m  
    7.41000m    999.6305m    999.1481m  
    7.42000m    999.6300m    999.1546m  
    7.43000m    999.6295m    999.1595m  
    7.44000m    999.6290m    999.1632m  
    7.45000m    999.6285m    999.1669m  
    7.46000m    999.6280m    999.1705m  
    7.47000m    999.6275m    999.1742m  
    7.48000m    999.6270m    999.1779m  
    7.49000m    999.6265m    999.1816m  
    7.50000m    999.6260m    999.1853m  
    7.51000m    999.6255m    999.1889m  
    7.52000m    999.6250m    999.1926m  
    7.53000m    999.6245m    999.1963m  
    7.54000m    999.6240m    999.2000m  
    7.55000m    999.6235m    999.2036m  
    7.56000m    999.6230m    999.2073m  
    7.57000m    999.6225m    999.2110m  
    7.58000m    999.6220m    999.2147m  
    7.59000m    999.6215m    999.2184m  
    7.60000m    999.6210m    999.2220m  
    7.61000m    999.6205m    999.2257m  
    7.62000m    999.6200m    999.2294m  
    7.63000m    999.6195m    999.2331m  
    7.64000m    999.6190m    999.2367m  
    7.65000m    999.6185m    999.2404m  
    7.66000m    999.6180m    999.2441m  
    7.67000m    999.6175m    999.2478m  
    7.68000m    999.6170m    999.2515m  
    7.69000m    999.6165m    999.2551m  
    7.70000m    999.6160m    999.2588m  
    7.71000m    999.6155m    999.2625m  
    7.72000m    999.6150m    999.2662m  
    7.73000m    999.6145m    999.2698m  
    7.74000m    999.6140m    999.2735m  
    7.75000m    999.6135m    999.2772m  
    7.76000m    999.6130m    999.2809m  
    7.77000m    999.6125m    999.2846m  
    7.78000m    999.6120m    999.2882m  
    7.79000m    999.6115m    999.2919m  
    7.80000m    999.6110m    999.2956m  
    7.81000m    999.6105m    999.2993m  
    7.82000m    999.6100m    999.3030m  
    7.83000m    999.6095m    999.3066m  
    7.84000m    999.6090m    999.3103m  
    7.85000m    999.6085m    999.3140m  
    7.86000m    999.6080m    999.3177m  
    7.87000m    999.6075m    999.3213m  
    7.88000m    999.6070m    999.3250m  
    7.89000m    999.6065m    999.3287m  
    7.90000m    999.6060m    999.3324m  
    7.91000m    999.6055m    999.3361m  
    7.92000m    999.6050m    999.3397m  
    7.93000m    999.6045m    999.3425m  
    7.94000m    999.6040m    999.3445m  
    7.95000m    999.6035m    999.3465m  
    7.96000m    999.6030m    999.3485m  
    7.97000m    999.6025m    999.3505m  
    7.98000m    999.6020m    999.3525m  
    7.99000m    999.6015m    999.3545m  
    8.00000m    999.6010m    999.3566m  
    8.01000m    999.6005m    999.3586m  
    8.02000m    999.6000m    999.3606m  
    8.03000m    999.5995m    999.3626m  
    8.04000m    999.5990m    999.3646m  
    8.05000m    999.5985m    999.3666m  
    8.06000m    999.5980m    999.3686m  
    8.07000m    999.5975m    999.3706m  
    8.08000m    999.5970m    999.3726m  
    8.09000m    999.5965m    999.3746m  
    8.10000m    999.5960m    999.3766m  
    8.11000m    999.5955m    999.3786m  
    8.12000m    999.5950m    999.3806m  
    8.13000m    999.5945m    999.3826m  
    8.14000m    999.5940m    999.3846m  
    8.15000m    999.5935m    999.3867m  
    8.16000m    999.5930m    999.3887m  
    8.17000m    999.5925m    999.3907m  
    8.18000m    999.5920m    999.3927m  
    8.19000m    999.5915m    999.3947m  
    8.20000m    999.5910m    999.3967m  
    8.21000m    999.5905m    999.3987m  
    8.22000m    999.5900m    999.4007m  
    8.23000m    999.5895m    999.4027m  
    8.24000m    999.5890m    999.4047m  
    8.25000m    999.5885m    999.4067m  
    8.26000m    999.5880m    999.4087m  
    8.27000m    999.5875m    999.4107m  
    8.28000m    999.5870m    999.4127m  
    8.29000m    999.5865m    999.4147m  
    8.30000m    999.5860m    999.4168m  
    8.31000m    999.5855m    999.4188m  
    8.32000m    999.5850m    999.4208m  
    8.33000m    999.5845m    999.4228m  
    8.34000m    999.5840m    999.4248m  
    8.35000m    999.5835m    999.4268m  
    8.36000m    999.5830m    999.4288m  
    8.37000m    999.5825m    999.4308m  
    8.38000m    999.5820m    999.4328m  
    8.39000m    999.5815m    999.4348m  
    8.40000m    999.5810m    999.4368m  
    8.41000m    999.5805m    999.4388m  
    8.42000m    999.5800m    999.4408m  
    8.43000m    999.5795m    999.4423m  
    8.44000m    999.5790m    999.4433m  
    8.45000m    999.5785m    999.4443m  
    8.46000m    999.5780m    999.4453m  
    8.47000m    999.5775m    999.4463m  
    8.48000m    999.5770m    999.4473m  
    8.49000m    999.5765m    999.4483m  
    8.50000m    999.5760m    999.4493m  
    8.51000m    999.5755m    999.4503m  
    8.52000m    999.5750m    999.4513m  
    8.53000m    999.5745m    999.4523m  
    8.54000m    999.5740m    999.4533m  
    8.55000m    999.5735m    999.4544m  
    8.56000m    999.5730m    999.4554m  
    8.57000m    999.5725m    999.4564m  
    8.58000m    999.5720m    999.4574m  
    8.59000m    999.5715m    999.4584m  
    8.60000m    999.5710m    999.4594m  
    8.61000m    999.5705m    999.4604m  
    8.62000m    999.5700m    999.4614m  
    8.63000m    999.5695m    999.4624m  
    8.64000m    999.5690m    999.4634m  
    8.65000m    999.5685m    999.4644m  
    8.66000m    999.5680m    999.4654m  
    8.67000m    999.5675m    999.4664m  
    8.68000m    999.5670m    999.4674m  
    8.69000m    999.5665m    999.4684m  
    8.70000m    999.5660m    999.4694m  
    8.71000m    999.5655m    999.4704m  
    8.72000m    999.5650m    999.4714m  
    8.73000m    999.5645m    999.4724m  
    8.74000m    999.5640m    999.4734m  
    8.75000m    999.5635m    999.4744m  
    8.76000m    999.5630m    999.4754m  
    8.77000m    999.5625m    999.4764m  
    8.78000m    999.5620m    999.4774m  
    8.79000m    999.5615m    999.4784m  
    8.80000m    999.5610m    999.4795m  
    8.81000m    999.5605m    999.4805m  
    8.82000m    999.5600m    999.4815m  
    8.83000m    999.5595m    999.4825m  
    8.84000m    999.5590m    999.4835m  
    8.85000m    999.5585m    999.4845m  
    8.86000m    999.5580m    999.4855m  
    8.87000m    999.5575m    999.4865m  
    8.88000m    999.5570m    999.4875m  
    8.89000m    999.5565m    999.4885m  
    8.90000m    999.5560m    999.4895m  
    8.91000m    999.5555m    999.4905m  
    8.92000m    999.5550m    999.4915m  
    8.93000m    999.5545m    999.4922m  
    8.94000m    999.5540m    999.4926m  
    8.95000m    999.5535m    999.4930m  
    8.96000m    999.5530m    999.4934m  
    8.97000m    999.5525m    999.4938m  
    8.98000m    999.5520m    999.4942m  
    8.99000m    999.5515m    999.4946m  
    9.00000m    999.5510m    999.4950m  
    9.01000m    999.5505m    999.4954m  
    9.02000m    999.5500m    999.4958m  
    9.03000m    999.5495m    999.4962m  
    9.04000m    999.5490m    999.4966m  
    9.05000m    999.5485m    999.4970m  
    9.06000m    999.5480m    999.4974m  
    9.07000m    999.5475m    999.4978m  
    9.08000m    999.5470m    999.4982m  
    9.09000m    999.5465m    999.4986m  
    9.10000m    999.5460m    999.4990m  
    9.11000m    999.5455m    999.4994m  
    9.12000m    999.5450m    999.4998m  
    9.13000m    999.5445m    999.5002m  
    9.14000m    999.5440m    999.5006m  
    9.15000m    999.5435m    999.5010m  
    9.16000m    999.5430m    999.5014m  
    9.17000m    999.5425m    999.5018m  
    9.18000m    999.5420m    999.5022m  
    9.19000m    999.5415m    999.5026m  
    9.20000m    999.5410m    999.5030m  
    9.21000m    999.5405m    999.5035m  
    9.22000m    999.5400m    999.5039m  
    9.23000m    999.5395m    999.5043m  
    9.24000m    999.5390m    999.5047m  
    9.25000m    999.5385m    999.5051m  
    9.26000m    999.5380m    999.5055m  
    9.27000m    999.5375m    999.5059m  
    9.28000m    999.5370m    999.5063m  
    9.29000m    999.5365m    999.5067m  
    9.30000m    999.5360m    999.5071m  
    9.31000m    999.5355m    999.5075m  
    9.32000m    999.5350m    999.5079m  
    9.33000m    999.5345m    999.5083m  
    9.34000m    999.5340m    999.5087m  
    9.35000m    999.5335m    999.5091m  
    9.36000m    999.5330m    999.5095m  
    9.37000m    999.5325m    999.5099m  
    9.38000m    999.5320m    999.5103m  
    9.39000m    999.5315m    999.5107m  
    9.40000m    999.5310m    999.5111m  
    9.41000m    999.5305m    999.5115m  
    9.42000m    999.5300m    999.5119m  
    9.43000m    999.5295m    999.5121m  
    9.44000m    999.5290m    999.5121m  
    9.45000m    999.5285m    999.5122m  
    9.46000m    999.5280m    999.5122m  
    9.47000m    999.5275m    999.5123m  
    9.48000m    999.5270m    999.5123m  
    9.49000m    999.5265m    999.5124m  
    9.50000m    999.5260m    999.5124m  
    9.51000m    999.5255m    999.5124m  
    9.52000m    999.5250m    999.5125m  
    9.53000m    999.5245m    999.5125m  
    9.54000m    999.5240m    999.5126m  
    9.55000m    999.5235m    999.5126m  
    9.56000m    999.5230m    999.5126m  
    9.57000m    999.5225m    999.5127m  
    9.58000m    999.5220m    999.5127m  
    9.59000m    999.5215m    999.5128m  
    9.60000m    999.5210m    999.5128m  
    9.61000m    999.5205m    999.5129m  
    9.62000m    999.5200m    999.5129m  
    9.63000m    999.5195m    999.5129m  
    9.64000m    999.5190m    999.5130m  
    9.65000m    999.5185m    999.5130m  
    9.66000m    999.5180m    999.5131m  
    9.67000m    999.5175m    999.5131m  
    9.68000m    999.5170m    999.5131m  
    9.69000m    999.5165m    999.5132m  
    9.70000m    999.5160m    999.5132m  
    9.71000m    999.5155m    999.5133m  
    9.72000m    999.5150m    999.5133m  
    9.73000m    999.5145m    999.5134m  
    9.74000m    999.5140m    999.5134m  
    9.75000m    999.5135m    999.5134m  
    9.76000m    999.5130m    999.5135m  
    9.77000m    999.5125m    999.5135m  
    9.78000m    999.5120m    999.5136m  
    9.79000m    999.5115m    999.5136m  
    9.80000m    999.5110m    999.5136m  
    9.81000m    999.5105m    999.5137m  
    9.82000m    999.5100m    999.5137m  
    9.83000m    999.5095m    999.5138m  
    9.84000m    999.5090m    999.5138m  
    9.85000m    999.5085m    999.5139m  
    9.86000m    999.5080m    999.5139m  
    9.87000m    999.5075m    999.5139m  
    9.88000m    999.5070m    999.5140m  
    9.89000m    999.5065m    999.5140m  
    9.90000m    999.5060m    999.5141m  
    9.91000m    999.5055m    999.5141m  
    9.92000m    999.5050m    999.5141m  
    9.93000m    999.5045m    999.5141m  
    9.94000m    999.5040m    999.5140m  
    9.95000m    999.5035m    999.5139m  
    9.96000m    999.5030m    999.5138m  
    9.97000m    999.5025m    999.5137m  
    9.98000m    999.5020m    999.5136m  
    9.99000m    999.5015m    999.5134m  
   10.00000m    999.5010m    999.5133m  
y

          ***** job concluded
1****** HSPICE -- I-2013.12-SP2-1 32-BIT (Jun 10 2014) RHEL32 ******            
 ******  
 a simple ac run

 ****** job statistics summary tnom=  25.000 temp=  25.000 ******
  
  
 ******  Machine Information  ******
 CPU:
 model name	: Intel(R) Xeon(R) CPU           E5603  @ 1.60GHz
 cpu MHz	: 1596.043
  
 OS:
 Linux version 2.6.32-573.12.1.el6.x86_64 (mockbuild@x86-031.build.eng.bos.redhat.com) (gcc version 4.4.7 20120313 (Red Hat 4.4.7-16) (GCC) ) #1 SMP Mon Nov 23 12:55:32 EST 2015


  ******  HSPICE Threads Information  ******

  Command Line Threads Count :     1
  Available CPU Count        :     8
  Actual Threads Count       :     1


  ******  Circuit Statistics  ******
  # nodes       =       3 # elements   =       3
  # resistors   =       1 # capacitors =       1 # inductors   =       0
  # mutual_inds =       0 # vccs       =       0 # vcvs        =       0
  # cccs        =       0 # ccvs       =       0 # volt_srcs   =       1
  # curr_srcs   =       0 # diodes     =       0 # bjts        =       0
  # jfets       =       0 # mosfets    =       0 # U elements  =       0
  # T elements  =       0 # W elements =       0 # B elements  =       0
  # S elements  =       0 # P elements =       0 # va device   =       0
  # vector_srcs =       0 # N elements =       0


  ******  Runtime Statistics (seconds)  ******

  analysis           time    # points   tot. iter  conv.iter
  op point           0.00           1           3
  transient          0.00        1001          72          36 rev=         1
  readin             0.00
  errchk             0.00
  setup              0.00
  output             0.01


           peak memory used        120.04 megabytes
           total cpu time            0.01 seconds
           total elapsed time        1.54 seconds
           job started at     14:21:35 01/25/2016
           job ended   at     14:21:36 01/25/2016


 lic: Release hspice token(s) 
 lic: total license checkout elapse time:        1.51(s)
