Using: /usr/local/apps/synopsys/hspice/linux/hspice mosfet.sp
 ****** HSPICE -- I-2013.12-SP2-1 32-BIT (Jun 10 2014) RHEL32 ******            
  Copyright (C) 2014 Synopsys, Inc. All Rights Reserved.                        
  Unpublished-rights reserved under US copyright laws.
  This program is protected by law and is subject to the
  terms and conditions of the license agreement from Synopsys.
  Use of this program is your acceptance to be bound by the
  license agreement. HSPICE is the trademark of Synopsys, Inc.
  Input File: mosfet.sp                                                         
  Command line options: mosfet.sp
 lic:  
 lic: FLEXlm: v10.9.8 
 lic: USER:   niels538             HOSTNAME: ece-spiez 
 lic: HOSTID: 1803734585b4         PID:      50996 
 lic: Using FLEXlm license file: 
 lic: 27020@synopsys.cse.umn.edu 
 lic: Checkout 1 hspice 
 lic: License/Maintenance for hspice will expire on 19-dec-2016/2015.06 
 lic: 34(in_use)/50(total) FLOATING license(s) on SERVER 27020@synopsys.cse.umn.edu 
 lic:   
 Init: read install configuration file: /usr/local/apps/synopsys/hspice/meta.cfg
  **warning** (mosfet.sp:9) c        is not level=   3 model parameter. Parameter has been ignored.
 scientific notation:
 a=10**-18  f=10**-15  p=10**-12  n=10**-9  u=10**-6
 m=10**-3   k=10**3    x=10**6    g=10**9 


 circuit parameter definitions
  parameter          =  value 





 constants  - tnom         kt           vt           gapsi        ni
            298.15000    4.1163e-21    25.69184m     1.11562    1.2565e+16 
1****** HSPICE -- I-2013.12-SP2-1 32-BIT (Jun 10 2014) RHEL32 ******            
 ******  
 mosfet i-v curve

 ****** mos   model parameters tnom=  25.000 temp=  25.000 ******
 ***************************************************************************
 *** common model parameters  model name:   0:cmosn    model type:nmos   ***
 ***************************************************************************
     names  values   units     names  values   units     names  values   units
     -----  ------   -----     -----  ------   -----     -----  ------   -----

   1*** geometry parameters ***
       ld= 100.00f meters      lmlt=   1.00                wd= 233.48n meters 
     wmlt=   1.00                xl=   0.    meters        xw=   0.    meters 
     lref=   0.    meters      wref=   0.    meters      lref=   0.    meters 
     wref=   0.    meters     xlref=   0.    meters     xwref=   0.    meters 
     lmin=   0.    meters      wmin=   0.    meters      lmax=   0.    meters 
     wmax=   0.    meters 

   2*** threshold voltage parameters ***
      vto= 764.09m volts        nss=   0.    1/cm**2      tpg=   1.00         
      phi= 700.00m volts      gamma= 548.36m v**0.5      bulk=  gnd           
    ngate=   0.    cm**3       nsub= 1.0e+17 1/cm**3   delvto=   0.    volts  

   3*** gate overlap capacitance parameters ***
     cgbo= 100.00p f/meter     cgdo= 215.00p f/meter     cgso= 215.00p f/meter
     meto=   0.    meters 

   4*** gate capacitance parameters ***
    capop=   2.00               cf1=   0.    volts        cf2= 100.00m volts  
      cf3=   1.00  volts        cf4=  50.00               cf5= 666.67m        
      cf6= 500.00               xqc= 500.00m              tox=  14.00n meters 
      cox=   2.47m f/m**2 

   5*** diffusion parasitic parameters ***
      acm=   0.                  is=  10.00f amps          js=   0.    a/m**2 
      jsw=   0.    amp/m        nds=   1.00               cbd=   0.    farad  
      cbs=   0.    farad         cj= 952.86u f/m**2      cjsw= 314.75p f/m    
   cjgate= 314.75p f/m           mj= 435.90m             mjsw= 197.77m        
       pb= 914.04m volts        php= 914.04m volts         tt=   0.    secs   
     hdif=   0.    meters      ldif=   0.    meters        rd=   0.    ohms   
       rs=   0.    ohms         rsh=   7.51m ohms/sq       fc=   0.           
    alpha=   0.                 vcr=   0.    volts      iirat=   0.           
      rdc=   0.    ohms         rsc=   0.    ohms           n=   1.00         
     vnds=  -1.00  volts  

   6*** temperature effect parameters ***
     tlev=   0.               tlevc=   0.                  eg=   1.11  ev     
     gap1= 702.00u ev/deg      gap2=   1.11k deg          xti=   0.           
      bex=  -1.50               tcv=   0.    v/deg k      trd=   0.    /deg   
      trs=   0.    /deg         cta=   0.    /deg         ctp=   0.    /deg   

   7*** noise parameters ***
       kf=   0.                  af=   1.00              nlev=   2.00         
   gdsnoi=   1.00         

   ***  level  3  model parameters  ***

    delta=   3.05               eta=   3.16u            kappa= 300.00m /v     
      nfs= 1.0e+12 1/cm**2    theta= 101.40m /v          vmax= 144.22k m/sec  
       xj= 300.00n meters        uo= 662.70 cm**2/vs       kp= 125.94u a/v**2 
    deriv=   1.00         
1****** HSPICE -- I-2013.12-SP2-1 32-BIT (Jun 10 2014) RHEL32 ******            
 ******  
 mosfet i-v curve

 ****** circuit element summary tnom=  25.000 temp=  25.000 ******


 **** independent sources

     name         node1        node2      dc volt    ac mag    ac phase    type
  vg  1                 0                    3.0000     0.         0.      dc   
  vi  0                 2                    1.0000     0.         0.      dc   


 **** mosfets
  
  
                             
 element name        0:m1    
 drain               0:2     
 gate                0:1     
 source              0:0     
 bulk                0:0     
 model               0:cmosn 
 w eff               9.5330u 
 l eff               1.5000u 
 rd eff              0.      
 rs eff              0.      
 cdsat              10.0000f 
 cssat              10.0000f 
 capbd               0.      
 capbs               0.      
 temp               25.0000  
 aic                         
 m                   1.0000  
 w drawn            10.0000u 
 l drawn             1.5000u 
  
  
1****** HSPICE -- I-2013.12-SP2-1 32-BIT (Jun 10 2014) RHEL32 ******            
 ******  
 mosfet i-v curve

 ****** element node table
                                                                                      
 0                vg               vi               m1:s             m1:b             
 1                vg               m1:g                                               
 2                vi               m1:d                                               
 *****************************************************************
 ******  option summary
 ******
 runlvl  = 3         bypass  = 2         

          ***** job concluded
1****** HSPICE -- I-2013.12-SP2-1 32-BIT (Jun 10 2014) RHEL32 ******            
 ******  
 mosfet i-v curve

 ****** job statistics summary tnom=  25.000 temp=  25.000 ******
  
  
 ******  Machine Information  ******
 CPU:
 model name	: Intel(R) Xeon(R) CPU           E5603  @ 1.60GHz
 cpu MHz	: 1596.043
  
 OS:
 Linux version 2.6.32-573.12.1.el6.x86_64 (mockbuild@x86-031.build.eng.bos.redhat.com) (gcc version 4.4.7 20120313 (Red Hat 4.4.7-16) (GCC) ) #1 SMP Mon Nov 23 12:55:32 EST 2015


  ******  HSPICE Threads Information  ******

  Command Line Threads Count :     1
  Available CPU Count        :     8
  Actual Threads Count       :     1


  ******  Circuit Statistics  ******
  # nodes       =       3 # elements   =       3
  # resistors   =       0 # capacitors =       0 # inductors   =       0
  # mutual_inds =       0 # vccs       =       0 # vcvs        =       0
  # cccs        =       0 # ccvs       =       0 # volt_srcs   =       2
  # curr_srcs   =       0 # diodes     =       0 # bjts        =       0
  # jfets       =       0 # mosfets    =       1 # U elements  =       0
  # T elements  =       0 # W elements =       0 # B elements  =       0
  # S elements  =       0 # P elements =       0 # va device   =       0
  # vector_srcs =       0 # N elements =       0


  ******  Runtime Statistics (seconds)  ******

  analysis           time    # points   tot. iter  conv.iter
  op point           0.00           1           0
  dc sweep           0.00         101         487
  readin             0.00
  errchk             0.01
  setup              0.00
  output             0.00


           peak memory used        120.11 megabytes
           total cpu time            0.01 seconds
           total elapsed time        1.53 seconds
           job started at     15:26:21 01/25/2016
           job ended   at     15:26:23 01/25/2016


 lic: Release hspice token(s) 
 lic: total license checkout elapse time:        1.50(s)
