Using: /usr/local/apps/synopsys/hspice/linux/hspice opamp.sp
 ****** HSPICE -- I-2013.12-SP2-1 32-BIT (Jun 10 2014) RHEL32 ******            
  Copyright (C) 2014 Synopsys, Inc. All Rights Reserved.                        
  Unpublished-rights reserved under US copyright laws.
  This program is protected by law and is subject to the
  terms and conditions of the license agreement from Synopsys.
  Use of this program is your acceptance to be bound by the
  license agreement. HSPICE is the trademark of Synopsys, Inc.
  Input File: opamp.sp                                                          
  Command line options: opamp.sp
 lic:  
 lic: FLEXlm: v10.9.8 
 lic: USER:   niels538             HOSTNAME: ECE-Zermatt 
 lic: HOSTID: 14feb5f0a7ff         PID:      29184 
 lic: Using FLEXlm license file: 
 lic: 27020@synopsys.cse.umn.edu 
 lic: Checkout 1 hspice 
 lic: License/Maintenance for hspice will expire on 19-dec-2016/2015.06 
 lic: 6(in_use)/50(total) FLOATING license(s) on SERVER 27020@synopsys.cse.umn.edu 
 lic:   
 Init: read install configuration file: /usr/local/apps/synopsys/hspice/meta.cfg
 scientific notation:
 a=10**-18  f=10**-15  p=10**-12  n=10**-9  u=10**-6
 m=10**-3   k=10**3    x=10**6    g=10**9 


 circuit parameter definitions
  parameter          =  value 

     0:length                                                  = 250.0000n      
     0:vic                                                     =   0.           
     0:vid                                                     =   0.           




 constants  - tnom         kt           vt           gapsi        ni
            298.15000    4.1163e-21    25.69184m     1.11562    1.2565e+16 
1****** HSPICE -- I-2013.12-SP2-1 32-BIT (Jun 10 2014) RHEL32 ******            
 ******  
 opamp! schhweeeet

 ****** mos   model parameters tnom=  25.000 temp=  25.000 ******
 ***************************************************************************
 ***        model parameters  model name:   0:cmosn    model type:nmos   ***
 ***************************************************************************

   *** general parameters ***
    deriv=   0.           

   ***  level 49  model parameters  ***

      hspver=    2006.03               level=         49         
     version=        3.1            paramchk=          0         
      apwarn=          1                lite=          0         
      vgslim=          0             binUnit=          1         
      capMod=          2               xpart=        0.4         
      mobMod=          1              nqsMod=          0         
      stiMod=          0                 elm=          5         
    sfvtflag=          0                 tox=    5.7e-09 meter   
          xj=      1e-07 meter       binflag=          0         
        lmin=          0 meter          lmax=          0 meter   
        wmin=          0 meter          wmax=          0 meter   
        lref=          0 meter          wref=          0 meter   
        lint=1.11652e-09 meter          wint=1.64571e-09 meter   
       lmult=          1               wmult=          1         
          ll=          0                 lln=          1         
          lw=          0                 lwn=          1         
         lwl=          0                  wl=          0         
         wln=          1                  ww=-1.22182e-16         
         wwn=     1.2127                 wwl=          0         
         dwg=-1.49414e-09 m/V             dwb= 1.4591e-08 m/V^1/2 
          xl=      3e-08                  xw=          0         
          a0=    1.31893                 ags=   0.271172 V^-1    
          b0=3.29171e-08 meter            b1=     -1e-07 meter   
        keta= 0.00464575 V^-1           voff=  -0.102605 V       
       ngate=          0 cm^-3           vbx=          0 V       
         vbm=         -3 V                xt=   1.55e-07 meter   
        vth0=    0.43655 V               nch= 2.3549e+17 cm^-3   
        nsub=      6e+16 cm^-3           nlx=1.11146e-07 meter   
      gamma1=          0 V^-1/2       gamma2=          0 V^-1/2  
          k1=   0.391562 V^1/2            k2=  0.0175145         
          k3=      0.001                 k3b=    2.65883 V^-1    
          w0=      1e-07 meter          dvt0= -0.0408321         
        dvt1=  0.0746768                dvt2=   0.307109 V^-1    
       dvt0w=          0 meter^-1      dvt1w=          0 meter^-1
       dvt2w=          0 V^-1           dsub=  0.0214865         
        eta0= 0.00193031                etab=0.000294616 V^-1    
          u0=    407.118 cm^2/V/sec         ua=9.44271e-11 m/V     
          ub=1.09299e-18 (m/V)^2          uc=1.63196e-11 V^-1    
        vsat=     136509 m/sec            a1=          0 v^-1    
          a2=          1               delta=       0.01 V       
        rdsw=    439.956 ohm-um         prwg=  0.0345487 V^-1    
        prwb= -0.0441065 V^-1/2           wr=          1         
        pclm=    1.33879             pdiblc1=   0.480652         
     pdiblc2= 0.00903499             pdiblcb=     -0.001 V^-1    
      pscbe1=9.84329e+09 V/m          pscbe2=2.10878e-09 V/m     
       drout=   0.559322                pvag=    1.00331         
     nfactor=   0.134489                cdsc= 0.00152751 f/m^2   
       cdscb=          0 f/V/m^2       cdscd=          0 f/V/m^2 
         cit=          0 f/m^2        alpha0=          0 m/V     
       beta0=         30 V               dlc=1.11652e-09 meter   
         dwc=1.64571e-09 meter           clc=      1e-07 meter   
         cle=        0.6                cgso=   3.11e-10 f/m     
        cgdo=   3.11e-10 f/m            cgbo=      1e-11 f/m     
        cgsl=          0 f/m            cgdl=          0 f/m     
      ckappa=        0.6                  cf=9.37621e-11 f/m     
        tnom=     300.15 K               kt1=      -0.11 V       
        kt1l=          0                 kt2=      0.022         
         ute=       -1.5                 ua1=   4.31e-09 m/V     
         ub1=  -7.61e-18 (m/V)^2         uc1=   -5.6e-11 m/V^2   
          at=      33000 m/s             prt=          0         
         using Berkeley noise model       noiMod=          1         
        noia=      1e+20                noib=      50000         
        noic=   -1.4e-12                  em=    4.1e+07         
          ef=          1                  af=          1         
          kf=          0              gdsnoi=-1.23457e-29         
         using Hspice diodes            using ACM 
         acm=         3                 hdif=   3.5e-07 meter    
        ldif=         0 meter             js=         0 amp/m^2  
         jsw=         0 amp/m            xti=         0          
           n=         1                   cj=0.00175852 f/m^2    
          mj=  0.457547                   pb=      0.99 V        
        cjsw=4.08506e-10 f/m             mjsw=  0.337407          
         php=      0.99 V               pbsw (not used)           
      cjgate=4.08506e-10 f/m            cjswg (not used)           
       mjswg (not used)                 pbswg (not used)           
        lags=    -0.3012               lketa= -0.0090406         
       wketa= 0.00303597               pvth0=7.14752e-05         
         pk2= -0.0013446               prdsw=   -67.2162         
 ***************************************************************************
 ***        model parameters  model name:   0:cmosp    model type:pmos   ***
 ***************************************************************************

   *** general parameters ***
    deriv=   0.           

   ***  level 49  model parameters  ***

      hspver=    2006.03               level=         49         
     version=        3.1            paramchk=          0         
      apwarn=          1                lite=          0         
      vgslim=          0             binUnit=          1         
      capMod=          2               xpart=        0.4         
      mobMod=          1              nqsMod=          0         
      stiMod=          0                 elm=          5         
    sfvtflag=          0                 tox=    5.7e-09 meter   
          xj=      1e-07 meter       binflag=          0         
        lmin=          0 meter          lmax=          0 meter   
        wmin=          0 meter          wmax=          0 meter   
        lref=          0 meter          wref=          0 meter   
        lint=1.25451e-08 meter          wint=2.52729e-09 meter   
       lmult=          1               wmult=          1         
          ll=          0                 lln=          1         
          lw=          0                 lwn=          1         
         lwl=          0                  wl=          0         
         wln=          1                  ww=          0         
         wwn=          1                 wwl=          0         
         dwg=-3.25395e-08 m/V             dwb=4.92072e-08 m/V^1/2 
          xl=      3e-08                  xw=          0         
          a0=   0.239871                 ags=  0.0943234 V^-1    
          b0=3.21184e-06 meter            b1=      5e-06 meter   
        keta=  0.0312217 V^-1           voff=      -0.15 V       
       ngate=          0 cm^-3           vbx=          0 V       
         vbm=         -3 V                xt=   1.55e-07 meter   
        vth0=  -0.658639 V               nch= 4.1589e+17 cm^-3   
        nsub=      6e+16 cm^-3           nlx=      1e-09 meter   
      gamma1=          0 V^-1/2       gamma2=          0 V^-1/2  
          k1=    0.51999 V^1/2            k2=  0.0357513         
          k3=          0                 k3b=    15.5614 V^-1    
          w0=      1e-06 meter          dvt0=    2.61002         
        dvt1=   0.436314                dvt2=  -0.042436 V^-1    
       dvt0w=          0 meter^-1      dvt1w=          0 meter^-1
       dvt2w=          0 V^-1           dsub=    1.08136         
        eta0=   0.724124                etab=  -0.240523 V^-1    
          u0=    196.025 cm^2/V/sec         ua=2.76711e-09 m/V     
          ub=1.90709e-18 (m/V)^2          uc=6.16687e-11 V^-1    
        vsat=     197506 m/sec            a1=          0 v^-1    
          a2=          1               delta=       0.01 V       
        rdsw=    997.073 ohm-um         prwg=  -0.191611 V^-1    
        prwb=     -0.495 V^-1/2           wr=          1         
        pclm=    2.07721             pdiblc1=0.000431459         
     pdiblc2=  0.0252121             pdiblcb=-0.000996072 V^-1    
      pscbe1=3.19105e+10 V/m          pscbe2=1.32322e-08 V/m     
       drout=  0.0432774                pvag=  0.0420525         
     nfactor=    1.54605                cdsc=0.000141332 f/m^2   
       cdscb=          0 f/V/m^2       cdscd=          0 f/V/m^2 
         cit=          0 f/m^2        alpha0=          0 m/V     
       beta0=         30 V               dlc=1.25451e-08 meter   
         dwc=2.52729e-09 meter           clc=      1e-07 meter   
         cle=        0.6                cgso=   2.68e-10 f/m     
        cgdo=   2.68e-10 f/m            cgbo=      1e-11 f/m     
        cgsl=          0 f/m            cgdl=          0 f/m     
      ckappa=        0.6                  cf=9.37621e-11 f/m     
        tnom=     300.15 K               kt1=      -0.11 V       
        kt1l=          0                 kt2=      0.022         
         ute=       -1.5                 ua1=   4.31e-09 m/V     
         ub1=  -7.61e-18 (m/V)^2         uc1=   -5.6e-11 m/V^2   
          at=      33000 m/s             prt=          0         
         using Berkeley noise model       noiMod=          1         
        noia=    9.9e+18                noib=       2400         
        noic=    1.4e-12                  em=    4.1e+07         
          ef=          1                  af=          1         
          kf=          0              gdsnoi=-1.23457e-29         
         using Hspice diodes            using ACM 
         acm=         3                 hdif=   3.5e-07 meter    
        ldif=         0 meter             js=         0 amp/m^2  
         jsw=         0 amp/m            xti=         0          
           n=         1                   cj=0.00190249 f/m^2    
          mj=  0.464436                   pb=  0.981028 V        
        cjsw=3.14274e-10 f/m             mjsw=  0.330445          
         php=  0.981028 V               pbsw (not used)           
      cjgate=3.14274e-10 f/m            cjswg (not used)           
       mjswg (not used)                 pbswg (not used)           
       lketa= -0.0208318               wketa= -0.0079135         
       pvth0= 0.00495298                 pk2= 0.00338337         
       prdsw=    29.8169         
 

1****** HSPICE -- I-2013.12-SP2-1 32-BIT (Jun 10 2014) RHEL32 ******            
 ******  
 opamp! schhweeeet

 ****** circuit element summary tnom=  25.000 temp=  25.000 ******


 **** resistors

  
  
                                                   
 element name        0:r1       0:r3       0:r2    
 node1               0:n8       0:n1       0:n10   
 node2               0:n7       0:n7       0:nvss  
 model                                             
 res eff             1.6260k   10.0000u   50.0000k 
 tc1                 0.         0.         0.      
 tc2                 0.         0.         0.      
 scale               1.0000     1.0000     1.0000  
 m                   1.0000     1.0000     1.0000  
 ac                  1.6260k   10.0000u   50.0000k 
 temp               25.0000    25.0000    25.0000  
 l                   0.         0.         0.      
 w                   0.         0.         0.      
 cap                 0.         0.         0.      
 noise            1.000e+00  1.000e+00  1.000e+00  


 **** capacitors
  
  
                             
 element name        0:c1    
 node1               0:n5    
 node2               0:n8    
 model                       
 cap eff           100.0000p 
 tc1                 0.      
 tc2                 0.      
 scale               1.0000  
 ic                  0.      
 m                   1.0000  
 w                   0.      
 l                   0.      
 temp               25.0000  


 **** independent sources

     name         node1        node2      dc volt    ac mag    ac phase    type
  vdd  nvdd              0                    2.0000     0.         0.      dc   
  vi2  n2                0                    0.         0.         0.      dc   
  vss  0                 nvss                 2.0000     0.         0.      dc   
  ibias  n6                nvss                10.0000u    0.         0.      dc   


 **** mosfets


 **** BSIM3v3 Model (Level49 or Level53)
  
  
                                                              
 element name        0:m1       0:m2       0:m3       0:m4    
 drain               0:n4       0:n5       0:n4       0:n5    
 gate                0:n1       0:n2       0:n4       0:n4    
 source              0:n3       0:n3       0:nvss     0:nvss  
 bulk                0:nvdd     0:nvdd     0:nvss     0:nvss  
 model               0:cmosp    0:cmosp    0:cmosn    0:cmosn 
 w eff              49.9949u   49.9949u   11.5969u   11.5969u 
 l eff             254.9097n  254.9097n  277.7670n  277.7670n 
 rd eff              0.         0.         0.         0.      
 rs eff              0.         0.         0.         0.      
 cdsat               0.         0.         0.         0.      
 cssat               0.         0.         0.         0.      
 capbd              98.4402f   98.4402f   24.3241f   24.3241f 
 capbs              98.4402f   98.4402f   24.3241f   24.3241f 
 temp               25.0000    25.0000    25.0000    25.0000  
 aic                                                          
 nf                  1.0000     1.0000     1.0000     1.0000  
 sa                  0.         0.         0.         0.      
 sb                  0.         0.         0.         0.      
 sd                  0.         0.         0.         0.      
 saeff               0.         0.         0.         0.      
 sbeff               0.         0.         0.         0.      
 mulu0               1.0000     1.0000     1.0000     1.0000  
 mulua               1.0000     1.0000     1.0000     1.0000  
 mulub               1.0000     1.0000     1.0000     1.0000  
 m                   1.0000     1.0000     1.0000     1.0000  
 w drawn            50.0000u   50.0000u   11.6000u   11.6000u 
 l drawn           250.0000n  250.0000n  250.0000n  250.0000n 
  
  
                                                              
 element name        0:m5       0:m6       0:m7       0:m8    
 drain               0:n3       0:n7       0:n7       0:n6    
 gate                0:n6       0:n5       0:n6       0:n6    
 source              0:nvdd     0:nvss     0:nvdd     0:nvdd  
 bulk                0:nvdd     0:nvss     0:nvdd     0:nvdd  
 model               0:cmosp    0:cmosn    0:cmosp    0:cmosp 
 w eff              99.9949u   11.5969u   49.9949u   49.9949u 
 l eff             254.9097n  277.7670n  254.9097n  254.9097n 
 rd eff              0.         0.         0.         0.      
 rs eff              0.         0.         0.         0.      
 cdsat               0.         0.         0.         0.      
 cssat               0.         0.         0.         0.      
 capbd             196.4404f   24.3241f   98.4402f   98.4402f 
 capbs             196.4404f   24.3241f   98.4402f   98.4402f 
 temp               25.0000    25.0000    25.0000    25.0000  
 aic                                                          
 nf                  1.0000     1.0000     1.0000     1.0000  
 sa                  0.         0.         0.         0.      
 sb                  0.         0.         0.         0.      
 sd                  0.         0.         0.         0.      
 saeff               0.         0.         0.         0.      
 sbeff               0.         0.         0.         0.      
 mulu0               1.0000     1.0000     1.0000     1.0000  
 mulua               1.0000     1.0000     1.0000     1.0000  
 mulub               1.0000     1.0000     1.0000     1.0000  
 m                   1.0000     1.0000     1.0000     1.0000  
 w drawn           100.0000u   11.6000u   50.0000u   50.0000u 
 l drawn           250.0000n  250.0000n  250.0000n  250.0000n 
  
  
                                                   
 element name        0:m9       0:m10      0:m11   
 drain               0:n9       0:n6       0:n9    
 gate                0:n6       0:n9       0:n10   
 source              0:nvdd     0:n10      0:nvss  
 bulk                0:nvdd     0:nvss     0:nvss  
 model               0:cmosp    0:cmosn    0:cmosn 
 w eff              49.9949u   11.2970u   11.2970u 
 l eff             254.9097n  277.7670n  277.7670n 
 rd eff              0.         0.         0.      
 rs eff              0.         0.         0.      
 cdsat               0.         0.         0.      
 cssat               0.         0.         0.      
 capbd              98.4402f   23.7098f   23.7098f 
 capbs              98.4402f   23.7098f   23.7098f 
 temp               25.0000    25.0000    25.0000  
 aic                                               
 nf                  1.0000     1.0000     1.0000  
 sa                  0.         0.         0.      
 sb                  0.         0.         0.      
 sd                  0.         0.         0.      
 saeff               0.         0.         0.      
 sbeff               0.         0.         0.      
 mulu0               1.0000     1.0000     1.0000  
 mulua               1.0000     1.0000     1.0000  
 mulub               1.0000     1.0000     1.0000  
 m                   1.0000     1.0000     1.0000  
 w drawn            50.0000u   11.3000u   11.3000u 
 l drawn           250.0000n  250.0000n  250.0000n 
  
             
 Warning:'Shorted resistors' occurs 1 times
 Summary of shorted resistors:
 ------------------------
 |Location   |Resistor  |
 |-----------+----------|
 |opamp.sp:22|r3        |
 ------------------------
              
  
1****** HSPICE -- I-2013.12-SP2-1 32-BIT (Jun 10 2014) RHEL32 ******            
 ******  
 opamp! schhweeeet

 ****** element node table
                                                                                      
 0                vdd              vi2              vss                               
 n1               is shorted to    n7                                                 
 n10              r2               m10:s            m11:g                             
 n2               vi2              m2:g                                               
 n3               m1:s             m2:s             m5:d                              
 n4               m1:d             m3:d             m3:g             m4:g             
 n5               c1               m2:d             m4:d             m6:g             
 n6               ibias            m5:g             m7:g             m8:d             
                  m8:g             m9:g             m10:d                             
 n7               r1               m1:g             m6:d             m7:d             
 n8               r1               c1                                                 
 n9               m9:d             m10:g            m11:d                             
 nvdd             vdd              m1:b             m2:b             m5:s             
                  m5:b             m7:s             m7:b             m8:s             
                  m8:b             m9:s             m9:b                              
 nvss             r2               vss              ibias            m3:s             
                  m3:b             m4:s             m4:b             m6:s             
                  m6:b             m10:b            m11:s            m11:b            
 **info** set option symb=1 internally to help for convergence.
 *****************************************************************
 ******  option summary
 ******
 runlvl  = 3         bypass  = 2         
1****** HSPICE -- I-2013.12-SP2-1 32-BIT (Jun 10 2014) RHEL32 ******            
 ******  
 opamp! schhweeeet

 ****** temperature-adjusted values tnom=  25.000 temp=  25.000 ******

 constants  - temp             kt               vt               gapsi            ni
            298.1500         4.116e-21         25.6918m          1.1156         1.256e+16      

 *** resistors
    name        eff val        eff val(ac)


 *** capacitors
    name        eff val



 *** mosfet element parameters
 name             rd eff           rs eff           cdsat            cssat              vto                beta


        0:m1                  0.               0.               0.               0.            -658.2505m         30.0037m      
        0:m2                  0.               0.               0.               0.            -658.2505m         30.0037m      
        0:m3                  0.               0.               0.               0.             436.5719m         15.3285m      
        0:m4                  0.               0.               0.               0.             436.5719m         15.3285m      
        0:m5                  0.               0.               0.               0.            -658.4448m         60.0104m      
        0:m6                  0.               0.               0.               0.             436.5719m         15.3285m      
        0:m7                  0.               0.               0.               0.            -658.2505m         30.0037m      
        0:m8                  0.               0.               0.               0.            -658.2505m         30.0037m      
        0:m9                  0.               0.               0.               0.            -658.2505m         30.0037m      
        0:m10                 0.               0.               0.               0.             436.5725m         14.9320m      
        0:m11                 0.               0.               0.               0.             436.5725m         14.9320m      
 ******  
 opamp! schhweeeet

 ****** dc transfer curves tnom=  25.000 temp=  25.000 ******
x

        volt    voltage      voltage      voltage      current 1  
                    n4           n5           n7           m1     
   -2.50000      -1.4274    -891.9086m     -1.9882     -35.9949u  
   -2.49000      -1.4274    -892.0703m     -1.9882     -35.9961u  
   -2.48000      -1.4274    -892.2386m     -1.9882     -35.9974u  
   -2.47000      -1.4274    -892.4138m     -1.9882     -35.9987u  
   -2.46000      -1.4274    -892.5963m     -1.9882     -36.0000u  
   -2.45000      -1.4274    -892.7867m     -1.9882     -36.0014u  
   -2.44000      -1.4274    -892.9854m     -1.9882     -36.0029u  
   -2.43000      -1.4274    -893.1930m     -1.9882     -36.0045u  
   -2.42000      -1.4274    -893.4102m     -1.9882     -36.0061u  
   -2.41000      -1.4274    -893.6375m     -1.9882     -36.0078u  
   -2.40000      -1.4274    -893.8758m     -1.9882     -36.0096u  
   -2.39000      -1.4274    -894.1259m     -1.9882     -36.0114u  
   -2.38000      -1.4274    -894.3885m     -1.9882     -36.0134u  
   -2.37000      -1.4274    -894.6648m     -1.9882     -36.0154u  
   -2.36000      -1.4273    -894.9557m     -1.9882     -36.0176u  
   -2.35000      -1.4273    -895.2626m     -1.9882     -36.0199u  
   -2.34000      -1.4273    -895.5867m     -1.9882     -36.0223u  
   -2.33000      -1.4273    -895.9295m     -1.9882     -36.0249u  
   -2.32000      -1.4273    -896.2927m     -1.9882     -36.0276u  
   -2.31000      -1.4273    -896.6782m     -1.9882     -36.0305u  
   -2.30000      -1.4273    -897.0879m     -1.9882     -36.0335u  
   -2.29000      -1.4273    -897.5244m     -1.9881     -36.0368u  
   -2.28000      -1.4273    -897.9901m     -1.9881     -36.0402u  
   -2.27000      -1.4273    -898.4882m     -1.9881     -36.0439u  
   -2.26000      -1.4273    -899.0221m     -1.9881     -36.0479u  
   -2.25000      -1.4273    -899.5957m     -1.9881     -36.0522u  
   -2.24000      -1.4273    -900.2134m     -1.9881     -36.0568u  
   -2.23000      -1.4273    -900.8805m     -1.9881     -36.0618u  
   -2.22000      -1.4273    -901.6029m     -1.9881     -36.0671u  
   -2.21000      -1.4273    -902.3876m     -1.9881     -36.0730u  
   -2.20000      -1.4272    -903.2428m     -1.9881     -36.0793u  
   -2.19000      -1.4272    -904.1779m     -1.9880     -36.0863u  
   -2.18000      -1.4272    -905.2043m     -1.9880     -36.0939u  
   -2.17000      -1.4272    -906.3354m     -1.9880     -36.1023u  
   -2.16000      -1.4272    -907.5873m     -1.9880     -36.1116u  
   -2.15000      -1.4272    -908.9796m     -1.9880     -36.1220u  
   -2.14000      -1.4272    -910.5360m     -1.9879     -36.1335u  
   -2.13000      -1.4271    -912.2857m     -1.9879     -36.1465u  
   -2.12000      -1.4271    -914.2655m     -1.9879     -36.1612u  
   -2.11000      -1.4271    -916.5215m     -1.9878     -36.1779u  
   -2.10000      -1.4271    -919.1135m     -1.9878     -36.1971u  
   -2.09000      -1.4270    -922.1199m     -1.9877     -36.2194u  
   -2.08000      -1.4270    -925.6468m     -1.9877     -36.2454u  
   -2.07000      -1.4269    -929.8424m     -1.9876     -36.2763u  
   -2.06000      -1.4269    -934.9233m     -1.9875     -36.3135u  
   -2.05000      -1.4268    -941.2257m     -1.9874     -36.3595u  
   -2.04000      -1.4267    -949.3249m     -1.9872     -36.4255u  
   -2.03000      -1.4265    -960.3238m     -1.9870     -36.5084u  
   -2.02000      -1.4263    -976.9117m     -1.9866     -36.6331u  
   -2.01000      -1.4260      -1.0089      -1.9859     -36.8693u  
   -2.00000      -1.4250      -1.0897      -1.9833     -37.4883u  
   -1.99000      -1.4238      -1.1836      -1.9782     -38.2036u  
   -1.98000      -1.4231      -1.2502      -1.9716     -38.6940u  
   -1.97000      -1.4226      -1.2940      -1.9637     -38.9936u  
   -1.96000      -1.4223      -1.3229      -1.9551     -39.1656u  
   -1.95000      -1.4222      -1.3427      -1.9461     -39.2569u  
   -1.94000      -1.4221      -1.3565      -1.9368     -39.2960u  
   -1.93000      -1.4221      -1.3664      -1.9273     -39.3000u  
   -1.92000      -1.4222      -1.3734      -1.9176     -39.2907u  
   -1.91000      -1.4222      -1.3786      -1.9079     -39.2499u  
   -1.90000      -1.4223      -1.3823      -1.8981     -39.1977u  
   -1.89000      -1.4224      -1.3851      -1.8882     -39.1373u  
   -1.88000      -1.4225      -1.3872      -1.8783     -39.0714u  
   -1.87000      -1.4226      -1.3887      -1.8684     -39.0016u  
   -1.86000      -1.4227      -1.3900      -1.8584     -38.9294u  
   -1.85000      -1.4228      -1.3911      -1.8485     -38.8555u  
   -1.84000      -1.4229      -1.3920      -1.8385     -38.7805u  
   -1.83000      -1.4231      -1.3927      -1.8285     -38.7048u  
   -1.82000      -1.4232      -1.3935      -1.8186     -38.6287u  
   -1.81000      -1.4233      -1.3941      -1.8086     -38.5522u  
   -1.80000      -1.4234      -1.3948      -1.7986     -38.4754u  
   -1.79000      -1.4235      -1.3954      -1.7886     -38.3986u  
   -1.78000      -1.4237      -1.3959      -1.7787     -38.3216u  
   -1.77000      -1.4238      -1.3965      -1.7687     -38.2447u  
   -1.76000      -1.4239      -1.3970      -1.7587     -38.1677u  
   -1.75000      -1.4240      -1.3976      -1.7487     -38.0907u  
   -1.74000      -1.4241      -1.3981      -1.7387     -38.0137u  
   -1.73000      -1.4243      -1.3986      -1.7288     -37.9368u  
   -1.72000      -1.4244      -1.3991      -1.7188     -37.8599u  
   -1.71000      -1.4245      -1.3996      -1.7088     -37.7830u  
   -1.70000      -1.4246      -1.4001      -1.6988     -37.7063u  
   -1.69000      -1.4248      -1.4005      -1.6888     -37.6296u  
   -1.68000      -1.4249      -1.4010      -1.6789     -37.5530u  
   -1.67000      -1.4250      -1.4015      -1.6689     -37.4764u  
   -1.66000      -1.4251      -1.4020      -1.6589     -37.3999u  
   -1.65000      -1.4252      -1.4024      -1.6489     -37.3236u  
   -1.64000      -1.4254      -1.4029      -1.6389     -37.2473u  
   -1.63000      -1.4255      -1.4034      -1.6289     -37.1710u  
   -1.62000      -1.4256      -1.4038      -1.6190     -37.0949u  
   -1.61000      -1.4257      -1.4043      -1.6090     -37.0189u  
   -1.60000      -1.4258      -1.4047      -1.5990     -36.9430u  
   -1.59000      -1.4260      -1.4052      -1.5890     -36.8671u  
   -1.58000      -1.4261      -1.4056      -1.5790     -36.7914u  
   -1.57000      -1.4262      -1.4061      -1.5690     -36.7157u  
   -1.56000      -1.4263      -1.4065      -1.5591     -36.6402u  
   -1.55000      -1.4265      -1.4070      -1.5491     -36.5647u  
   -1.54000      -1.4266      -1.4074      -1.5391     -36.4893u  
   -1.53000      -1.4267      -1.4078      -1.5291     -36.4141u  
   -1.52000      -1.4268      -1.4083      -1.5191     -36.3389u  
   -1.51000      -1.4269      -1.4087      -1.5091     -36.2638u  
   -1.50000      -1.4271      -1.4092      -1.4992     -36.1889u  
   -1.49000      -1.4272      -1.4096      -1.4892     -36.1140u  
   -1.48000      -1.4273      -1.4100      -1.4792     -36.0392u  
   -1.47000      -1.4274      -1.4105      -1.4692     -35.9645u  
   -1.46000      -1.4276      -1.4109      -1.4592     -35.8900u  
   -1.45000      -1.4277      -1.4113      -1.4492     -35.8155u  
   -1.44000      -1.4278      -1.4117      -1.4392     -35.7411u  
   -1.43000      -1.4279      -1.4122      -1.4293     -35.6669u  
   -1.42000      -1.4280      -1.4126      -1.4193     -35.5927u  
   -1.41000      -1.4282      -1.4130      -1.4093     -35.5186u  
   -1.40000      -1.4283      -1.4134      -1.3993     -35.4447u  
   -1.39000      -1.4284      -1.4139      -1.3893     -35.3708u  
   -1.38000      -1.4285      -1.4143      -1.3793     -35.2970u  
   -1.37000      -1.4287      -1.4147      -1.3693     -35.2234u  
   -1.36000      -1.4288      -1.4151      -1.3594     -35.1498u  
   -1.35000      -1.4289      -1.4155      -1.3494     -35.0764u  
   -1.34000      -1.4290      -1.4159      -1.3394     -35.0030u  
   -1.33000      -1.4292      -1.4164      -1.3294     -34.9298u  
   -1.32000      -1.4293      -1.4168      -1.3194     -34.8566u  
   -1.31000      -1.4294      -1.4172      -1.3094     -34.7836u  
   -1.30000      -1.4295      -1.4176      -1.2994     -34.7106u  
   -1.29000      -1.4296      -1.4180      -1.2895     -34.6378u  
   -1.28000      -1.4298      -1.4184      -1.2795     -34.5651u  
   -1.27000      -1.4299      -1.4188      -1.2695     -34.4924u  
   -1.26000      -1.4300      -1.4192      -1.2595     -34.4199u  
   -1.25000      -1.4301      -1.4196      -1.2495     -34.3474u  
   -1.24000      -1.4303      -1.4201      -1.2395     -34.2751u  
   -1.23000      -1.4304      -1.4205      -1.2295     -34.2029u  
   -1.22000      -1.4305      -1.4209      -1.2196     -34.1308u  
   -1.21000      -1.4306      -1.4213      -1.2096     -34.0587u  
   -1.20000      -1.4307      -1.4217      -1.1996     -33.9868u  
   -1.19000      -1.4309      -1.4221      -1.1896     -33.9150u  
   -1.18000      -1.4310      -1.4225      -1.1796     -33.8433u  
   -1.17000      -1.4311      -1.4229      -1.1696     -33.7717u  
   -1.16000      -1.4312      -1.4233      -1.1596     -33.7002u  
   -1.15000      -1.4314      -1.4237      -1.1496     -33.6288u  
   -1.14000      -1.4315      -1.4241      -1.1397     -33.5574u  
   -1.13000      -1.4316      -1.4245      -1.1297     -33.4862u  
   -1.12000      -1.4317      -1.4249      -1.1197     -33.4151u  
   -1.11000      -1.4319      -1.4253      -1.1097     -33.3441u  
   -1.10000      -1.4320      -1.4257      -1.0997     -33.2732u  
   -1.09000      -1.4321      -1.4261      -1.0897     -33.2025u  
   -1.08000      -1.4322      -1.4264      -1.0797     -33.1318u  
   -1.07000      -1.4324      -1.4268      -1.0697     -33.0612u  
   -1.06000      -1.4325      -1.4272      -1.0598     -32.9907u  
   -1.05000      -1.4326      -1.4276      -1.0498     -32.9203u  
   -1.04000      -1.4327      -1.4280      -1.0398     -32.8500u  
   -1.03000      -1.4328      -1.4284      -1.0298     -32.7798u  
   -1.02000      -1.4330      -1.4288      -1.0198     -32.7097u  
   -1.01000      -1.4331      -1.4292      -1.0098     -32.6398u  
   -1.00000      -1.4332      -1.4296    -999.8316m    -32.5699u  
 -990.00000m     -1.4333      -1.4300    -989.8438m    -32.5001u  
 -980.00000m     -1.4335      -1.4303    -979.8560m    -32.4304u  
 -970.00000m     -1.4336      -1.4307    -969.8681m    -32.3609u  
 -960.00000m     -1.4337      -1.4311    -959.8802m    -32.2914u  
 -950.00000m     -1.4338      -1.4315    -949.8922m    -32.2220u  
 -940.00000m     -1.4340      -1.4319    -939.9042m    -32.1528u  
 -930.00000m     -1.4341      -1.4323    -929.9162m    -32.0836u  
 -920.00000m     -1.4342      -1.4326    -919.9281m    -32.0145u  
 -910.00000m     -1.4343      -1.4330    -909.9399m    -31.9456u  
 -900.00000m     -1.4345      -1.4334    -899.9518m    -31.8767u  
 -890.00000m     -1.4346      -1.4338    -889.9635m    -31.8080u  
 -880.00000m     -1.4347      -1.4342    -879.9752m    -31.7393u  
 -870.00000m     -1.4348      -1.4345    -869.9869m    -31.6707u  
 -860.00000m     -1.4349      -1.4349    -859.9986m    -31.6023u  
 -850.00000m     -1.4351      -1.4353    -850.0102m    -31.5339u  
 -840.00000m     -1.4352      -1.4357    -840.0217m    -31.4657u  
 -830.00000m     -1.4353      -1.4360    -830.0332m    -31.3975u  
 -820.00000m     -1.4354      -1.4364    -820.0447m    -31.3295u  
 -810.00000m     -1.4356      -1.4368    -810.0561m    -31.2615u  
 -800.00000m     -1.4357      -1.4372    -800.0675m    -31.1937u  
 -790.00000m     -1.4358      -1.4375    -790.0789m    -31.1259u  
 -780.00000m     -1.4359      -1.4379    -780.0902m    -31.0583u  
 -770.00000m     -1.4361      -1.4383    -770.1014m    -30.9907u  
 -760.00000m     -1.4362      -1.4387    -760.1126m    -30.9233u  
 -750.00000m     -1.4363      -1.4390    -750.1238m    -30.8559u  
 -740.00000m     -1.4364      -1.4394    -740.1350m    -30.7887u  
 -730.00000m     -1.4366      -1.4398    -730.1461m    -30.7215u  
 -720.00000m     -1.4367      -1.4401    -720.1571m    -30.6545u  
 -710.00000m     -1.4368      -1.4405    -710.1682m    -30.5875u  
 -700.00000m     -1.4369      -1.4409    -700.1791m    -30.5207u  
 -690.00000m     -1.4371      -1.4412    -690.1901m    -30.4539u  
 -680.00000m     -1.4372      -1.4416    -680.2010m    -30.3873u  
 -670.00000m     -1.4373      -1.4420    -670.2119m    -30.3207u  
 -660.00000m     -1.4374      -1.4423    -660.2227m    -30.2543u  
 -650.00000m     -1.4376      -1.4427    -650.2335m    -30.1879u  
 -640.00000m     -1.4377      -1.4431    -640.2442m    -30.1217u  
 -630.00000m     -1.4378      -1.4434    -630.2550m    -30.0555u  
 -620.00000m     -1.4379      -1.4438    -620.2656m    -29.9895u  
 -610.00000m     -1.4381      -1.4442    -610.2763m    -29.9235u  
 -600.00000m     -1.4382      -1.4445    -600.2869m    -29.8577u  
 -590.00000m     -1.4383      -1.4449    -590.2975m    -29.7919u  
 -580.00000m     -1.4384      -1.4452    -580.3080m    -29.7263u  
 -570.00000m     -1.4386      -1.4456    -570.3185m    -29.6607u  
 -560.00000m     -1.4387      -1.4460    -560.3290m    -29.5953u  
 -550.00000m     -1.4388      -1.4463    -550.3394m    -29.5299u  
 -540.00000m     -1.4389      -1.4467    -540.3498m    -29.4647u  
 -530.00000m     -1.4390      -1.4470    -530.3601m    -29.3995u  
 -520.00000m     -1.4392      -1.4474    -520.3705m    -29.3344u  
 -510.00000m     -1.4393      -1.4478    -510.3807m    -29.2695u  
 -500.00000m     -1.4394      -1.4481    -500.3910m    -29.2046u  
 -490.00000m     -1.4395      -1.4485    -490.4012m    -29.1398u  
 -480.00000m     -1.4397      -1.4488    -480.4114m    -29.0752u  
 -470.00000m     -1.4398      -1.4492    -470.4215m    -29.0106u  
 -460.00000m     -1.4399      -1.4495    -460.4317m    -28.9461u  
 -450.00000m     -1.4400      -1.4499    -450.4417m    -28.8818u  
 -440.00000m     -1.4402      -1.4502    -440.4518m    -28.8175u  
 -430.00000m     -1.4403      -1.4506    -430.4618m    -28.7533u  
 -420.00000m     -1.4404      -1.4509    -420.4718m    -28.6892u  
 -410.00000m     -1.4405      -1.4513    -410.4817m    -28.6252u  
 -400.00000m     -1.4407      -1.4516    -400.4916m    -28.5614u  
 -390.00000m     -1.4408      -1.4520    -390.5015m    -28.4976u  
 -380.00000m     -1.4409      -1.4523    -380.5114m    -28.4339u  
 -370.00000m     -1.4410      -1.4527    -370.5212m    -28.3703u  
 -360.00000m     -1.4412      -1.4530    -360.5310m    -28.3068u  
 -350.00000m     -1.4413      -1.4534    -350.5407m    -28.2434u  
 -340.00000m     -1.4414      -1.4537    -340.5504m    -28.1801u  
 -330.00000m     -1.4415      -1.4541    -330.5601m    -28.1169u  
 -320.00000m     -1.4417      -1.4544    -320.5698m    -28.0538u  
 -310.00000m     -1.4418      -1.4548    -310.5794m    -27.9908u  
 -300.00000m     -1.4419      -1.4551    -300.5890m    -27.9278u  
 -290.00000m     -1.4421      -1.4555    -290.5986m    -27.8650u  
 -280.00000m     -1.4422      -1.4558    -280.6081m    -27.8023u  
 -270.00000m     -1.4423      -1.4562    -270.6176m    -27.7397u  
 -260.00000m     -1.4424      -1.4565    -260.6271m    -27.6771u  
 -250.00000m     -1.4426      -1.4569    -250.6365m    -27.6147u  
 -240.00000m     -1.4427      -1.4572    -240.6459m    -27.5524u  
 -230.00000m     -1.4428      -1.4575    -230.6553m    -27.4901u  
 -220.00000m     -1.4429      -1.4579    -220.6647m    -27.4280u  
 -210.00000m     -1.4431      -1.4582    -210.6740m    -27.3659u  
 -200.00000m     -1.4432      -1.4586    -200.6833m    -27.3040u  
 -190.00000m     -1.4433      -1.4589    -190.6926m    -27.2421u  
 -180.00000m     -1.4434      -1.4593    -180.7018m    -27.1803u  
 -170.00000m     -1.4436      -1.4596    -170.7110m    -27.1186u  
 -160.00000m     -1.4437      -1.4599    -160.7202m    -27.0571u  
 -150.00000m     -1.4438      -1.4603    -150.7293m    -26.9956u  
 -140.00000m     -1.4439      -1.4606    -140.7384m    -26.9342u  
 -130.00000m     -1.4441      -1.4610    -130.7475m    -26.8729u  
 -120.00000m     -1.4442      -1.4613    -120.7566m    -26.8117u  
 -110.00000m     -1.4443      -1.4616    -110.7656m    -26.7506u  
 -100.00000m     -1.4444      -1.4620    -100.7746m    -26.6896u  
  -90.00000m     -1.4446      -1.4623     -90.7836m    -26.6286u  
  -80.00000m     -1.4447      -1.4626     -80.7926m    -26.5678u  
  -70.00000m     -1.4448      -1.4630     -70.8015m    -26.5071u  
  -60.00000m     -1.4449      -1.4633     -60.8104m    -26.4464u  
  -50.00000m     -1.4451      -1.4637     -50.8193m    -26.3859u  
  -40.00000m     -1.4452      -1.4640     -40.8281m    -26.3254u  
  -30.00000m     -1.4453      -1.4643     -30.8369m    -26.2651u  
  -20.00000m     -1.4455      -1.4647     -20.8457m    -26.2048u  
  -10.00000m     -1.4456      -1.4650     -10.8545m    -26.1446u  
    0.           -1.4457      -1.4653    -863.2241u    -26.0845u  
   10.00000m     -1.4458      -1.4657       9.1281m    -26.0245u  
   20.00000m     -1.4460      -1.4660      19.1194m    -25.9646u  
   30.00000m     -1.4461      -1.4663      29.1107m    -25.9048u  
   40.00000m     -1.4462      -1.4667      39.1021m    -25.8451u  
   50.00000m     -1.4463      -1.4670      49.0935m    -25.7855u  
   60.00000m     -1.4465      -1.4673      59.0849m    -25.7259u  
   70.00000m     -1.4466      -1.4676      69.0763m    -25.6665u  
   80.00000m     -1.4467      -1.4680      79.0678m    -25.6071u  
   90.00000m     -1.4468      -1.4683      89.0593m    -25.5479u  
  100.00000m     -1.4470      -1.4686      99.0508m    -25.4887u  
  110.00000m     -1.4471      -1.4690     109.0424m    -25.4296u  
  120.00000m     -1.4472      -1.4693     119.0340m    -25.3706u  
  130.00000m     -1.4474      -1.4696     129.0255m    -25.3117u  
  140.00000m     -1.4475      -1.4700     139.0172m    -25.2529u  
  150.00000m     -1.4476      -1.4703     149.0088m    -25.1942u  
  160.00000m     -1.4477      -1.4706     159.0005m    -25.1355u  
  170.00000m     -1.4479      -1.4709     168.9922m    -25.0770u  
  180.00000m     -1.4480      -1.4713     178.9839m    -25.0185u  
  190.00000m     -1.4481      -1.4716     188.9756m    -24.9602u  
  200.00000m     -1.4482      -1.4719     198.9674m    -24.9019u  
  210.00000m     -1.4484      -1.4722     208.9592m    -24.8437u  
  220.00000m     -1.4485      -1.4726     218.9510m    -24.7856u  
  230.00000m     -1.4486      -1.4729     228.9428m    -24.7276u  
  240.00000m     -1.4488      -1.4732     238.9347m    -24.6696u  
  250.00000m     -1.4489      -1.4735     248.9266m    -24.6118u  
  260.00000m     -1.4490      -1.4739     258.9185m    -24.5540u  
  270.00000m     -1.4491      -1.4742     268.9104m    -24.4964u  
  280.00000m     -1.4493      -1.4745     278.9024m    -24.4388u  
  290.00000m     -1.4494      -1.4748     288.8944m    -24.3813u  
  300.00000m     -1.4495      -1.4752     298.8864m    -24.3239u  
  310.00000m     -1.4496      -1.4755     308.8784m    -24.2665u  
  320.00000m     -1.4498      -1.4758     318.8704m    -24.2093u  
  330.00000m     -1.4499      -1.4761     328.8625m    -24.1521u  
  340.00000m     -1.4500      -1.4765     338.8546m    -24.0950u  
  350.00000m     -1.4502      -1.4768     348.8467m    -24.0381u  
  360.00000m     -1.4503      -1.4771     358.8388m    -23.9811u  
  370.00000m     -1.4504      -1.4774     368.8310m    -23.9243u  
  380.00000m     -1.4505      -1.4777     378.8232m    -23.8676u  
  390.00000m     -1.4507      -1.4781     388.8154m    -23.8109u  
  400.00000m     -1.4508      -1.4784     398.8076m    -23.7543u  
  410.00000m     -1.4509      -1.4787     408.7998m    -23.6978u  
  420.00000m     -1.4511      -1.4790     418.7921m    -23.6414u  
  430.00000m     -1.4512      -1.4793     428.7844m    -23.5851u  
  440.00000m     -1.4513      -1.4797     438.7767m    -23.5288u  
  450.00000m     -1.4514      -1.4800     448.7690m    -23.4727u  
  460.00000m     -1.4516      -1.4803     458.7614m    -23.4166u  
  470.00000m     -1.4517      -1.4806     468.7537m    -23.3606u  
  480.00000m     -1.4518      -1.4809     478.7461m    -23.3046u  
  490.00000m     -1.4520      -1.4813     488.7385m    -23.2488u  
  500.00000m     -1.4521      -1.4816     498.7310m    -23.1930u  
  510.00000m     -1.4522      -1.4819     508.7234m    -23.1373u  
  520.00000m     -1.4523      -1.4822     518.7159m    -23.0817u  
  530.00000m     -1.4525      -1.4825     528.7084m    -23.0261u  
  540.00000m     -1.4526      -1.4828     538.7009m    -22.9706u  
  550.00000m     -1.4527      -1.4832     548.6935m    -22.9152u  
  560.00000m     -1.4529      -1.4835     558.6860m    -22.8599u  
  570.00000m     -1.4530      -1.4838     568.6786m    -22.8046u  
  580.00000m     -1.4531      -1.4841     578.6712m    -22.7495u  
  590.00000m     -1.4533      -1.4844     588.6638m    -22.6944u  
  600.00000m     -1.4534      -1.4847     598.6565m    -22.6393u  
  610.00000m     -1.4535      -1.4850     608.6491m    -22.5844u  
  620.00000m     -1.4536      -1.4854     618.6418m    -22.5295u  
  630.00000m     -1.4538      -1.4857     628.6345m    -22.4746u  
  640.00000m     -1.4539      -1.4860     638.6272m    -22.4199u  
  650.00000m     -1.4540      -1.4863     648.6200m    -22.3652u  
  660.00000m     -1.4542      -1.4866     658.6127m    -22.3106u  
  670.00000m     -1.4543      -1.4869     668.6055m    -22.2560u  
  680.00000m     -1.4544      -1.4872     678.5983m    -22.2015u  
  690.00000m     -1.4546      -1.4875     688.5911m    -22.1471u  
  700.00000m     -1.4547      -1.4879     698.5840m    -22.0927u  
  710.00000m     -1.4548      -1.4882     708.5768m    -22.0384u  
  720.00000m     -1.4549      -1.4885     718.5697m    -21.9842u  
  730.00000m     -1.4551      -1.4888     728.5626m    -21.9300u  
  740.00000m     -1.4552      -1.4891     738.5555m    -21.8758u  
  750.00000m     -1.4553      -1.4894     748.5485m    -21.8218u  
  760.00000m     -1.4555      -1.4897     758.5414m    -21.7678u  
  770.00000m     -1.4556      -1.4900     768.5344m    -21.7138u  
  780.00000m     -1.4557      -1.4904     778.5274m    -21.6599u  
  790.00000m     -1.4559      -1.4907     788.5204m    -21.6060u  
  800.00000m     -1.4560      -1.4910     798.5135m    -21.5522u  
  810.00000m     -1.4561      -1.4913     808.5065m    -21.4984u  
  820.00000m     -1.4563      -1.4916     818.4996m    -21.4447u  
  830.00000m     -1.4564      -1.4919     828.4927m    -21.3911u  
  840.00000m     -1.4565      -1.4922     838.4858m    -21.3374u  
  850.00000m     -1.4567      -1.4925     848.4790m    -21.2838u  
  860.00000m     -1.4568      -1.4928     858.4721m    -21.2303u  
  870.00000m     -1.4569      -1.4931     868.4653m    -21.1767u  
  880.00000m     -1.4571      -1.4934     878.4585m    -21.1233u  
  890.00000m     -1.4572      -1.4938     888.4517m    -21.0698u  
  900.00000m     -1.4573      -1.4941     898.4450m    -21.0163u  
  910.00000m     -1.4575      -1.4944     908.4382m    -20.9629u  
  920.00000m     -1.4576      -1.4947     918.4315m    -20.9095u  
  930.00000m     -1.4577      -1.4950     928.4248m    -20.8562u  
  940.00000m     -1.4579      -1.4953     938.4182m    -20.8028u  
  950.00000m     -1.4580      -1.4956     948.4115m    -20.7494u  
  960.00000m     -1.4581      -1.4959     958.4049m    -20.6960u  
  970.00000m     -1.4583      -1.4962     968.3983m    -20.6427u  
  980.00000m     -1.4584      -1.4965     978.3917m    -20.5893u  
  990.00000m     -1.4586      -1.4968     988.3851m    -20.5359u  
    1.00000      -1.4587      -1.4971     998.3786m    -20.4825u  
    1.01000      -1.4588      -1.4974       1.0084     -20.4291u  
    1.02000      -1.4590      -1.4978       1.0184     -20.3756u  
    1.03000      -1.4591      -1.4981       1.0284     -20.3220u  
    1.04000      -1.4592      -1.4984       1.0384     -20.2685u  
    1.05000      -1.4594      -1.4987       1.0483     -20.2148u  
    1.06000      -1.4595      -1.4990       1.0583     -20.1611u  
    1.07000      -1.4597      -1.4993       1.0683     -20.1072u  
    1.08000      -1.4598      -1.4996       1.0783     -20.0533u  
    1.09000      -1.4599      -1.4999       1.0883     -19.9992u  
    1.10000      -1.4601      -1.5002       1.0983     -19.9450u  
    1.11000      -1.4602      -1.5005       1.1083     -19.8907u  
    1.12000      -1.4604      -1.5008       1.1183     -19.8361u  
    1.13000      -1.4605      -1.5011       1.1283     -19.7813u  
    1.14000      -1.4607      -1.5014       1.1383     -19.7262u  
    1.15000      -1.4608      -1.5017       1.1483     -19.6709u  
    1.16000      -1.4610      -1.5020       1.1583     -19.6152u  
    1.17000      -1.4611      -1.5023       1.1683     -19.5591u  
    1.18000      -1.4613      -1.5026       1.1783     -19.5025u  
    1.19000      -1.4614      -1.5029       1.1883     -19.4454u  
    1.20000      -1.4616      -1.5032       1.1983     -19.3876u  
    1.21000      -1.4617      -1.5036       1.2082     -19.3291u  
    1.22000      -1.4619      -1.5039       1.2182     -19.2696u  
    1.23000      -1.4620      -1.5042       1.2282     -19.2091u  
    1.24000      -1.4622      -1.5045       1.2382     -19.1473u  
    1.25000      -1.4624      -1.5048       1.2482     -19.0840u  
    1.26000      -1.4626      -1.5051       1.2582     -19.0187u  
    1.27000      -1.4627      -1.5054       1.2682     -18.9511u  
    1.28000      -1.4629      -1.5057       1.2782     -18.8805u  
    1.29000      -1.4631      -1.5060       1.2882     -18.8063u  
    1.30000      -1.4634      -1.5063       1.2982     -18.7275u  
    1.31000      -1.4636      -1.5066       1.3082     -18.6426u  
    1.32000      -1.4639      -1.5069       1.3182     -18.5500u  
    1.33000      -1.4642      -1.5072       1.3282     -18.4473u  
    1.34000      -1.4645      -1.5075       1.3382     -18.3312u  
    1.35000      -1.4649      -1.5078       1.3482     -18.1973u  
    1.36000      -1.4653      -1.5081       1.3582     -18.0397u  
    1.37000      -1.4659      -1.5084       1.3682     -17.8505u  
    1.38000      -1.4666      -1.5087       1.3782     -17.6198u  
    1.39000      -1.4674      -1.5090       1.3883     -17.3355u  
    1.40000      -1.4685      -1.5093       1.3983     -16.9845u  
    1.41000      -1.4698      -1.5096       1.4083     -16.5542u  
    1.42000      -1.4715      -1.5099       1.4184     -16.0351u  
    1.43000      -1.4734      -1.5103       1.4285     -15.4227u  
    1.44000      -1.4758      -1.5106       1.4386     -14.7192u  
    1.45000      -1.4785      -1.5109       1.4487     -13.9328u  
    1.46000      -1.4817      -1.5112       1.4588     -13.0765u  
    1.47000      -1.4852      -1.5115       1.4689     -12.1663u  
    1.48000      -1.4891      -1.5118       1.4791     -11.2200u  
    1.49000      -1.4935      -1.5121       1.4892     -10.2554u  
    1.50000      -1.4982      -1.5124       1.4994      -9.2900u  
    1.51000      -1.5032      -1.5127       1.5096      -8.3399u  
    1.52000      -1.5087      -1.5130       1.5198      -7.4198u  
    1.53000      -1.5145      -1.5134       1.5300      -6.5421u  
    1.54000      -1.5207      -1.5137       1.5403      -5.7169u  
    1.55000      -1.5272      -1.5140       1.5505      -4.9518u  
    1.56000      -1.5340      -1.5143       1.5608      -4.2521u  
    1.57000      -1.5412      -1.5146       1.5711      -3.6205u  
    1.58000      -1.5487      -1.5149       1.5814      -3.0576u  
    1.59000      -1.5564      -1.5152       1.5916      -2.5619u  
    1.60000      -1.5644      -1.5156       1.6019      -2.1304u  
    1.61000      -1.5727      -1.5159       1.6122      -1.7590u  
    1.62000      -1.5812      -1.5162       1.6226      -1.4425u  
    1.63000      -1.5899      -1.5165       1.6329      -1.1755u  
    1.64000      -1.5988      -1.5168       1.6432    -952.3172n  
    1.65000      -1.6078      -1.5172       1.6535    -767.2816n  
    1.66000      -1.6170      -1.5175       1.6638    -615.0952n  
    1.67000      -1.6263      -1.5178       1.6741    -490.8271n  
    1.68000      -1.6357      -1.5181       1.6845    -390.0239n  
    1.69000      -1.6452      -1.5184       1.6948    -308.7454n  
    1.70000      -1.6548      -1.5188       1.7051    -243.5662n  
    1.71000      -1.6644      -1.5191       1.7154    -191.5538n  
    1.72000      -1.6741      -1.5194       1.7258    -150.2316n  
    1.73000      -1.6838      -1.5198       1.7361    -117.5320n  
    1.74000      -1.6936      -1.5201       1.7464     -91.7471n  
    1.75000      -1.7034      -1.5204       1.7568     -71.4785n  
    1.76000      -1.7132      -1.5208       1.7671     -55.5905n  
    1.77000      -1.7230      -1.5211       1.7775     -43.1672n  
    1.78000      -1.7329      -1.5215       1.7878     -33.4744n  
    1.79000      -1.7427      -1.5218       1.7981     -25.9266n  
    1.80000      -1.7526      -1.5222       1.8085     -20.0591n  
    1.81000      -1.7625      -1.5226       1.8188     -15.5049n  
    1.82000      -1.7723      -1.5230       1.8292     -11.9746n  
    1.83000      -1.7822      -1.5234       1.8396      -9.2414n  
    1.84000      -1.7921      -1.5238       1.8499      -7.1275n  
    1.85000      -1.8020      -1.5243       1.8603      -5.4941n  
    1.86000      -1.8118      -1.5248       1.8706      -4.2330n  
    1.87000      -1.8217      -1.5254       1.8810      -3.2602n  
    1.88000      -1.8316      -1.5262       1.8914      -2.5101n  
    1.89000      -1.8414      -1.5271       1.9018      -1.9323n  
    1.90000      -1.8513      -1.5284       1.9122      -1.4874n  
    1.91000      -1.8611      -1.5302       1.9225      -1.1451n  
    1.92000      -1.8708      -1.5328       1.9329    -881.9059p  
    1.93000      -1.8806      -1.5365       1.9433    -679.6932p  
    1.94000      -1.8902      -1.5419       1.9536    -524.4364p  
    1.95000      -1.8997      -1.5497       1.9639    -405.3270p  
    1.96000      -1.9091      -1.5616       1.9741    -314.4092p  
    1.97000      -1.9181      -1.5807       1.9842    -245.1437p  
    1.98000      -1.9265      -1.6182       1.9937    -194.1004p  
    1.99000      -1.9317      -1.7388       1.9997    -167.7455p  
    2.00000      -1.9320      -1.9320       2.0000    -166.5231p  
    2.01000      -1.9320      -1.9671       2.0000    -166.5179p  
    2.02000      -1.9320      -1.9780       2.0000    -166.5172p  
    2.03000      -1.9320      -1.9841       2.0000    -166.5169p  
    2.04000      -1.9320      -1.9880       2.0000    -166.5168p  
    2.05000      -1.9320      -1.9908       2.0000    -166.5168p  
    2.06000      -1.9320      -1.9928       2.0000    -166.5168p  
    2.07000      -1.9320      -1.9942       2.0000    -166.5168p  
    2.08000      -1.9320      -1.9953       2.0000    -166.5168p  
    2.09000      -1.9320      -1.9961       2.0000    -166.5168p  
    2.10000      -1.9320      -1.9967       2.0000    -166.5168p  
    2.11000      -1.9320      -1.9972       2.0000    -166.5168p  
    2.12000      -1.9320      -1.9975       2.0000    -166.5168p  
    2.13000      -1.9320      -1.9978       2.0000    -166.5168p  
    2.14000      -1.9320      -1.9980       2.0000    -166.5168p  
    2.15000      -1.9320      -1.9982       2.0000    -166.5168p  
    2.16000      -1.9320      -1.9983       2.0000    -166.5168p  
    2.17000      -1.9320      -1.9984       2.0000    -166.5168p  
    2.18000      -1.9320      -1.9985       2.0000    -166.5168p  
    2.19000      -1.9320      -1.9985       2.0000    -166.5168p  
    2.20000      -1.9320      -1.9986       2.0000    -166.5168p  
    2.21000      -1.9320      -1.9986       2.0000    -166.5168p  
    2.22000      -1.9320      -1.9987       2.0000    -166.5168p  
    2.23000      -1.9320      -1.9987       2.0000    -166.5168p  
    2.24000      -1.9320      -1.9987       2.0000    -166.5168p  
    2.25000      -1.9320      -1.9987       2.0000    -166.5168p  
    2.26000      -1.9320      -1.9987       2.0000    -166.5168p  
    2.27000      -1.9320      -1.9987       2.0000    -166.5168p  
    2.28000      -1.9320      -1.9987       2.0000    -166.5168p  
    2.29000      -1.9320      -1.9987       2.0000    -166.5168p  
    2.30000      -1.9320      -1.9987       2.0000    -166.5168p  
    2.31000      -1.9320      -1.9987       2.0000    -166.5168p  
    2.32000      -1.9320      -1.9987       2.0000    -166.5168p  
    2.33000      -1.9320      -1.9987       2.0000    -166.5168p  
    2.34000      -1.9320      -1.9987       2.0000    -166.5168p  
    2.35000      -1.9320      -1.9987       2.0000    -166.5168p  
    2.36000      -1.9320      -1.9987       2.0000    -166.5168p  
    2.37000      -1.9320      -1.9987       2.0000    -166.5168p  
    2.38000      -1.9320      -1.9987       2.0000    -166.5168p  
    2.39000      -1.9320      -1.9987       2.0000    -166.5168p  
    2.40000      -1.9320      -1.9987       2.0000    -166.5168p  
    2.41000      -1.9320      -1.9987       2.0000    -166.5168p  
    2.42000      -1.9320      -1.9987       2.0000    -166.5168p  
    2.43000      -1.9320      -1.9987       2.0000    -166.5168p  
    2.44000      -1.9320      -1.9987       2.0000    -166.5168p  
    2.45000      -1.9320      -1.9987       2.0000    -166.5168p  
    2.46000      -1.9320      -1.9987       2.0000    -166.5168p  
    2.47000      -1.9320      -1.9987       2.0000    -166.5168p  
    2.48000      -1.9320      -1.9987       2.0000    -166.5168p  
    2.49000      -1.9320      -1.9987       2.0000    -166.5168p  
    2.50000      -1.9320      -1.9987       2.0000    -166.5168p  
y
x

        volt    current 1    param        current      current 1  
                    m2       v(n1)-v(n2)      r2           m6     
   -2.50000     -44.6825u    511.7624m     11.3280u     52.1860u  
   -2.49000     -44.6674u    501.7650m     11.3280u     52.1860u  
   -2.48000     -44.6654u    491.7677m     11.3280u     52.1860u  
   -2.47000     -44.6634u    481.7706m     11.3280u     52.1859u  
   -2.46000     -44.6613u    471.7735m     11.3280u     52.1859u  
   -2.45000     -44.6590u    461.7766m     11.3280u     52.1859u  
   -2.44000     -44.6567u    451.7798m     11.3280u     52.1858u  
   -2.43000     -44.6542u    441.7831m     11.3280u     52.1858u  
   -2.42000     -44.6516u    431.7867m     11.3280u     52.1857u  
   -2.41000     -44.6488u    421.7903m     11.3280u     52.1857u  
   -2.40000     -44.6459u    411.7942m     11.3280u     52.1856u  
   -2.39000     -44.6429u    401.7982m     11.3280u     52.1856u  
   -2.38000     -44.6396u    391.8025m     11.3280u     52.1855u  
   -2.37000     -44.6362u    381.8070m     11.3280u     52.1855u  
   -2.36000     -44.6325u    371.8117m     11.3280u     52.1854u  
   -2.35000     -44.6286u    361.8167m     11.3280u     52.1854u  
   -2.34000     -44.6244u    351.8220m     11.3280u     52.1853u  
   -2.33000     -44.6200u    341.8276m     11.3280u     52.1852u  
   -2.32000     -44.6152u    331.8335m     11.3280u     52.1852u  
   -2.31000     -44.6102u    321.8398m     11.3280u     52.1851u  
   -2.30000     -44.6047u    311.8465m     11.3280u     52.1850u  
   -2.29000     -44.5988u    301.8537m     11.3280u     52.1849u  
   -2.28000     -44.5925u    291.8614m     11.3280u     52.1848u  
   -2.27000     -44.5857u    281.8696m     11.3280u     52.1847u  
   -2.26000     -44.5783u    271.8784m     11.3280u     52.1846u  
   -2.25000     -44.5702u    261.8879m     11.3280u     52.1845u  
   -2.24000     -44.5615u    251.8981m     11.3280u     52.1844u  
   -2.23000     -44.5520u    241.9092m     11.3280u     52.1842u  
   -2.22000     -44.5415u    231.9212m     11.3280u     52.1841u  
   -2.21000     -44.5301u    221.9343m     11.3280u     52.1839u  
   -2.20000     -44.5175u    211.9486m     11.3280u     52.1838u  
   -2.19000     -44.5036u    201.9643m     11.3280u     52.1835u  
   -2.18000     -44.4882u    191.9816m     11.3280u     52.1833u  
   -2.17000     -44.4711u    182.0008m     11.3280u     52.1831u  
   -2.16000     -44.4520u    172.0220m     11.3280u     52.1828u  
   -2.15000     -44.4306u    162.0458m     11.3280u     52.1825u  
   -2.14000     -44.4064u    152.0726m     11.3280u     52.1821u  
   -2.13000     -44.3790u    142.1028m     11.3280u     52.1817u  
   -2.12000     -44.3476u    132.1373m     11.3280u     52.1812u  
   -2.11000     -44.3115u    122.1768m     11.3280u     52.1805u  
   -2.10000     -44.2696u    112.2227m     11.3280u     52.1798u  
   -2.09000     -44.2202u    102.2765m     11.3280u     52.1789u  
   -2.08000     -44.1611u     92.3405m     11.3280u     52.1777u  
   -2.07000     -44.0892u     82.4176m     11.3280u     52.1762u  
   -2.06000     -43.9991u     72.5128m     11.3280u     52.1741u  
   -2.05000     -43.8820u     62.6334m     11.3280u     52.1711u  
   -2.04000     -44.2190u     52.7930m     11.3280u     52.1737u  
   -2.03000     -44.1258u     43.0183m     11.3280u     52.1707u  
   -2.02000     -43.9746u     33.3780m     11.3280u     52.1647u  
   -2.01000     -43.6266u     24.1479m     11.3280u     52.1372u  
   -2.00000     -42.9594u     16.7211m     11.3280u     51.8166u  
   -1.99000     -42.2411u     11.7603m     11.3280u     52.1273u  
   -1.98000     -41.6219u      8.4435m     11.3280u     52.0609u  
   -1.97000     -41.1814u      6.2810m     11.3280u     51.9388u  
   -1.96000     -40.8597u      4.8529m     11.3280u     51.8178u  
   -1.95000     -40.6135u      3.8816m     11.3280u     51.7016u  
   -1.94000     -40.4161u      3.2033m     11.3280u     51.5873u  
   -1.93000     -40.2517u      2.7212m     11.3280u     51.4734u  
   -1.92000     -40.1002u      2.3756m     11.3280u     50.6509u  
   -1.91000     -39.9781u      2.1265m     11.3280u     50.7107u  
   -1.90000     -39.8669u      1.9465m     11.3280u     50.7313u  
   -1.89000     -39.7636u      1.8155m     11.3280u     50.7235u  
   -1.88000     -39.6657u      1.7187m     11.3280u     50.6921u  
   -1.87000     -39.5716u      1.6454m     11.3280u     50.6399u  
   -1.86000     -39.4800u      1.5880m     11.3280u     50.5698u  
   -1.85000     -39.3903u      1.5415m     11.3280u     50.4859u  
   -1.84000     -39.3017u      1.5024m     11.3280u     50.3919u  
   -1.83000     -39.2141u      1.4685m     11.3280u     50.2911u  
   -1.82000     -39.1272u      1.4383m     11.3280u     50.1859u  
   -1.81000     -39.0409u      1.4108m     11.3280u     50.0777u  
   -1.80000     -38.9549u      1.3852m     11.3280u     49.9677u  
   -1.79000     -38.8694u      1.3612m     11.3280u     49.8566u  
   -1.78000     -38.7841u      1.3384m     11.3280u     49.7448u  
   -1.77000     -38.6992u      1.3165m     11.3280u     49.6326u  
   -1.76000     -38.6145u      1.2955m     11.3280u     49.5201u  
   -1.75000     -38.5300u      1.2750m     11.3280u     49.4076u  
   -1.74000     -38.4457u      1.2551m     11.3280u     49.2950u  
   -1.73000     -38.3617u      1.2357m     11.3280u     49.1824u  
   -1.72000     -38.2778u      1.2166m     11.3280u     49.0699u  
   -1.71000     -38.1942u      1.1979m     11.3280u     48.9575u  
   -1.70000     -38.1107u      1.1796m     11.3280u     48.8452u  
   -1.69000     -38.0274u      1.1615m     11.3280u     48.7330u  
   -1.68000     -37.9442u      1.1436m     11.3280u     48.6210u  
   -1.67000     -37.8612u      1.1260m     11.3280u     48.5091u  
   -1.66000     -37.7784u      1.1086m     11.3280u     48.3974u  
   -1.65000     -37.6957u      1.0913m     11.3280u     48.2858u  
   -1.64000     -37.6132u      1.0743m     11.3280u     48.1744u  
   -1.63000     -37.5309u      1.0574m     11.3280u     48.0632u  
   -1.62000     -37.4487u      1.0407m     11.3280u     47.9521u  
   -1.61000     -37.3666u      1.0241m     11.3280u     47.8412u  
   -1.60000     -37.2847u      1.0076m     11.3280u     47.7305u  
   -1.59000     -37.2030u    991.3121u     11.3280u     47.6200u  
   -1.58000     -37.1214u    975.1212u     11.3280u     47.5096u  
   -1.57000     -37.0399u    959.0492u     11.3280u     47.3994u  
   -1.56000     -36.9586u    943.0910u     11.3280u     47.2893u  
   -1.55000     -36.8774u    927.2421u     11.3280u     47.1795u  
   -1.54000     -36.7964u    911.4984u     11.3280u     47.0698u  
   -1.53000     -36.7155u    895.8561u     11.3280u     46.9603u  
   -1.52000     -36.6348u    880.3119u     11.3280u     46.8510u  
   -1.51000     -36.5542u    864.8627u     11.3280u     46.7418u  
   -1.50000     -36.4737u    849.5055u     11.3280u     46.6328u  
   -1.49000     -36.3934u    834.2380u     11.3280u     46.5240u  
   -1.48000     -36.3133u    819.0575u     11.3280u     46.4154u  
   -1.47000     -36.2332u    803.9619u     11.3280u     46.3070u  
   -1.46000     -36.1533u    788.9491u     11.3280u     46.1987u  
   -1.45000     -36.0736u    774.0173u     11.3280u     46.0906u  
   -1.44000     -35.9940u    759.1646u     11.3280u     45.9827u  
   -1.43000     -35.9145u    744.3894u     11.3280u     45.8749u  
   -1.42000     -35.8351u    729.6901u     11.3280u     45.7673u  
   -1.41000     -35.7559u    715.0652u     11.3280u     45.6599u  
   -1.40000     -35.6769u    700.5135u     11.3280u     45.5527u  
   -1.39000     -35.5979u    686.0334u     11.3280u     45.4457u  
   -1.38000     -35.5191u    671.6240u     11.3280u     45.3388u  
   -1.37000     -35.4405u    657.2839u     11.3280u     45.2321u  
   -1.36000     -35.3619u    643.0121u     11.3280u     45.1256u  
   -1.35000     -35.2835u    628.8076u     11.3280u     45.0192u  
   -1.34000     -35.2053u    614.6694u     11.3280u     44.9130u  
   -1.33000     -35.1272u    600.5965u     11.3280u     44.8070u  
   -1.32000     -35.0492u    586.5880u     11.3280u     44.7012u  
   -1.31000     -34.9713u    572.6430u     11.3280u     44.5955u  
   -1.30000     -34.8936u    558.7609u     11.3280u     44.4901u  
   -1.29000     -34.8160u    544.9407u     11.3280u     44.3847u  
   -1.28000     -34.7386u    531.1817u     11.3280u     44.2796u  
   -1.27000     -34.6613u    517.4832u     11.3280u     44.1746u  
   -1.26000     -34.5841u    503.8444u     11.3280u     44.0699u  
   -1.25000     -34.5070u    490.2648u     11.3280u     43.9652u  
   -1.24000     -34.4301u    476.7437u     11.3280u     43.8608u  
   -1.23000     -34.3533u    463.2804u     11.3280u     43.7565u  
   -1.22000     -34.2766u    449.8744u     11.3280u     43.6524u  
   -1.21000     -34.2001u    436.5250u     11.3280u     43.5485u  
   -1.20000     -34.1237u    423.2317u     11.3280u     43.4447u  
   -1.19000     -34.0474u    409.9940u     11.3280u     43.3411u  
   -1.18000     -33.9713u    396.8113u     11.3280u     43.2377u  
   -1.17000     -33.8953u    383.6831u     11.3280u     43.1345u  
   -1.16000     -33.8194u    370.6088u     11.3280u     43.0314u  
   -1.15000     -33.7437u    357.5881u     11.3280u     42.9285u  
   -1.14000     -33.6681u    344.6205u     11.3280u     42.8257u  
   -1.13000     -33.5926u    331.7054u     11.3280u     42.7232u  
   -1.12000     -33.5172u    318.8425u     11.3280u     42.6208u  
   -1.11000     -33.4420u    306.0312u     11.3280u     42.5186u  
   -1.10000     -33.3669u    293.2712u     11.3280u     42.4165u  
   -1.09000     -33.2919u    280.5620u     11.3280u     42.3146u  
   -1.08000     -33.2171u    267.9033u     11.3280u     42.2129u  
   -1.07000     -33.1424u    255.2946u     11.3280u     42.1114u  
   -1.06000     -33.0678u    242.7355u     11.3280u     42.0100u  
   -1.05000     -32.9933u    230.2257u     11.3280u     41.9088u  
   -1.04000     -32.9190u    217.7647u     11.3280u     41.8077u  
   -1.03000     -32.8448u    205.3523u     11.3280u     41.7068u  
   -1.02000     -32.7707u    192.9880u     11.3280u     41.6061u  
   -1.01000     -32.6968u    180.6714u     11.3280u     41.5056u  
   -1.00000     -32.6230u    168.4024u     11.3280u     41.4052u  
 -990.00000m    -32.5493u    156.1804u     11.3280u     41.3050u  
 -980.00000m    -32.4757u    144.0051u     11.3280u     41.2050u  
 -970.00000m    -32.4023u    131.8763u     11.3280u     41.1051u  
 -960.00000m    -32.3290u    119.7936u     11.3280u     41.0054u  
 -950.00000m    -32.2558u    107.7567u     11.3280u     40.9059u  
 -940.00000m    -32.1827u     95.7652u     11.3280u     40.8065u  
 -930.00000m    -32.1098u     83.8189u     11.3280u     40.7073u  
 -920.00000m    -32.0370u     71.9174u     11.3280u     40.6083u  
 -910.00000m    -31.9643u     60.0605u     11.3280u     40.5094u  
 -900.00000m    -31.8917u     48.2478u     11.3280u     40.4107u  
 -890.00000m    -31.8193u     36.4791u     11.3280u     40.3121u  
 -880.00000m    -31.7470u     24.7540u     11.3280u     40.2138u  
 -870.00000m    -31.6748u     13.0723u     11.3280u     40.1156u  
 -860.00000m    -31.6027u      1.4337u     11.3280u     40.0175u  
 -850.00000m    -31.5308u    -10.1621u     11.3280u     39.9196u  
 -840.00000m    -31.4590u    -21.7154u     11.3280u     39.8219u  
 -830.00000m    -31.3873u    -33.2264u     11.3280u     39.7243u  
 -820.00000m    -31.3157u    -44.6953u     11.3280u     39.6270u  
 -810.00000m    -31.2443u    -56.1226u     11.3280u     39.5297u  
 -800.00000m    -31.1729u    -67.5084u     11.3280u     39.4327u  
 -790.00000m    -31.1017u    -78.8529u     11.3280u     39.3358u  
 -780.00000m    -31.0307u    -90.1566u     11.3280u     39.2390u  
 -770.00000m    -30.9597u   -101.4195u     11.3280u     39.1425u  
 -760.00000m    -30.8889u   -112.6419u     11.3280u     39.0460u  
 -750.00000m    -30.8182u   -123.8242u     11.3280u     38.9498u  
 -740.00000m    -30.7476u   -134.9664u     11.3280u     38.8537u  
 -730.00000m    -30.6771u   -146.0690u     11.3280u     38.7578u  
 -720.00000m    -30.6068u   -157.1321u     11.3280u     38.6620u  
 -710.00000m    -30.5365u   -168.1559u     11.3280u     38.5664u  
 -700.00000m    -30.4664u   -179.1408u     11.3280u     38.4710u  
 -690.00000m    -30.3964u   -190.0868u     11.3280u     38.3757u  
 -680.00000m    -30.3266u   -200.9944u     11.3280u     38.2806u  
 -670.00000m    -30.2568u   -211.8636u     11.3280u     38.1856u  
 -660.00000m    -30.1872u   -222.6947u     11.3280u     38.0908u  
 -650.00000m    -30.1177u   -233.4880u     11.3280u     37.9962u  
 -640.00000m    -30.0483u   -244.2436u     11.3280u     37.9017u  
 -630.00000m    -29.9791u   -254.9618u     11.3280u     37.8074u  
 -620.00000m    -29.9099u   -265.6428u     11.3280u     37.7132u  
 -610.00000m    -29.8409u   -276.2868u     11.3280u     37.6192u  
 -600.00000m    -29.7720u   -286.8941u     11.3280u     37.5254u  
 -590.00000m    -29.7032u   -297.4648u     11.3280u     37.4317u  
 -580.00000m    -29.6346u   -307.9991u     11.3280u     37.3382u  
 -570.00000m    -29.5660u   -318.4973u     11.3280u     37.2448u  
 -560.00000m    -29.4976u   -328.9596u     11.3280u     37.1516u  
 -550.00000m    -29.4293u   -339.3861u     11.3280u     37.0586u  
 -540.00000m    -29.3611u   -349.7772u     11.3280u     36.9657u  
 -530.00000m    -29.2930u   -360.1329u     11.3280u     36.8730u  
 -520.00000m    -29.2251u   -370.4535u     11.3280u     36.7804u  
 -510.00000m    -29.1572u   -380.7391u     11.3280u     36.6880u  
 -500.00000m    -29.0895u   -390.9901u     11.3280u     36.5957u  
 -490.00000m    -29.0219u   -401.2065u     11.3280u     36.5036u  
 -480.00000m    -28.9544u   -411.3886u     11.3280u     36.4117u  
 -470.00000m    -28.8870u   -421.5365u     11.3280u     36.3199u  
 -460.00000m    -28.8198u   -431.6505u     11.3280u     36.2283u  
 -450.00000m    -28.7526u   -441.7308u     11.3280u     36.1368u  
 -440.00000m    -28.6856u   -451.7774u     11.3280u     36.0455u  
 -430.00000m    -28.6187u   -461.7907u     11.3280u     35.9543u  
 -420.00000m    -28.5519u   -471.7708u     11.3280u     35.8633u  
 -410.00000m    -28.4852u   -481.7179u     11.3280u     35.7724u  
 -400.00000m    -28.4187u   -491.6321u     11.3280u     35.6818u  
 -390.00000m    -28.3522u   -501.5137u     11.3280u     35.5912u  
 -380.00000m    -28.2859u   -511.3629u     11.3280u     35.5008u  
 -370.00000m    -28.2197u   -521.1797u     11.3280u     35.4106u  
 -360.00000m    -28.1536u   -530.9644u     11.3280u     35.3205u  
 -350.00000m    -28.0876u   -540.7172u     11.3280u     35.2306u  
 -340.00000m    -28.0217u   -550.4382u     11.3280u     35.1408u  
 -330.00000m    -27.9560u   -560.1276u     11.3280u     35.0512u  
 -320.00000m    -27.8903u   -569.7856u     11.3280u     34.9617u  
 -310.00000m    -27.8248u   -579.4124u     11.3280u     34.8724u  
 -300.00000m    -27.7594u   -589.0081u     11.3280u     34.7833u  
 -290.00000m    -27.6941u   -598.5729u     11.3280u     34.6943u  
 -280.00000m    -27.6289u   -608.1069u     11.3280u     34.6054u  
 -270.00000m    -27.5638u   -617.6104u     11.3280u     34.5167u  
 -260.00000m    -27.4988u   -627.0835u     11.3280u     34.4282u  
 -250.00000m    -27.4340u   -636.5263u     11.3280u     34.3398u  
 -240.00000m    -27.3692u   -645.9390u     11.3280u     34.2515u  
 -230.00000m    -27.3046u   -655.3218u     11.3280u     34.1634u  
 -220.00000m    -27.2401u   -664.6749u     11.3280u     34.0755u  
 -210.00000m    -27.1757u   -673.9984u     11.3280u     33.9877u  
 -200.00000m    -27.1114u   -683.2924u     11.3280u     33.9001u  
 -190.00000m    -27.0472u   -692.5571u     11.3280u     33.8126u  
 -180.00000m    -26.9831u   -701.7927u     11.3280u     33.7252u  
 -170.00000m    -26.9192u   -710.9993u     11.3280u     33.6381u  
 -160.00000m    -26.8553u   -720.1771u     11.3280u     33.5510u  
 -150.00000m    -26.7916u   -729.3263u     11.3280u     33.4641u  
 -140.00000m    -26.7280u   -738.4469u     11.3280u     33.3774u  
 -130.00000m    -26.6644u   -747.5392u     11.3280u     33.2908u  
 -120.00000m    -26.6010u   -756.6032u     11.3280u     33.2044u  
 -110.00000m    -26.5377u   -765.6392u     11.3280u     33.1181u  
 -100.00000m    -26.4745u   -774.6473u     11.3280u     33.0319u  
  -90.00000m    -26.4114u   -783.6276u     11.3280u     32.9459u  
  -80.00000m    -26.3485u   -792.5802u     11.3280u     32.8601u  
  -70.00000m    -26.2856u   -801.5054u     11.3280u     32.7744u  
  -60.00000m    -26.2228u   -810.4032u     11.3280u     32.6888u  
  -50.00000m    -26.1602u   -819.2739u     11.3280u     32.6034u  
  -40.00000m    -26.0976u   -828.1175u     11.3280u     32.5182u  
  -30.00000m    -26.0352u   -836.9342u     11.3280u     32.4331u  
  -20.00000m    -25.9729u   -845.7241u     11.3280u     32.3481u  
  -10.00000m    -25.9107u   -854.4873u     11.3280u     32.2633u  
    0.          -25.8485u   -863.2241u     11.3280u     32.1786u  
   10.00000m    -25.7865u   -871.9345u     11.3280u     32.0941u  
   20.00000m    -25.7246u   -880.6187u     11.3280u     32.0097u  
   30.00000m    -25.6628u   -889.2768u     11.3280u     31.9255u  
   40.00000m    -25.6011u   -897.9089u     11.3280u     31.8414u  
   50.00000m    -25.5396u   -906.5152u     11.3280u     31.7575u  
   60.00000m    -25.4781u   -915.0958u     11.3280u     31.6737u  
   70.00000m    -25.4167u   -923.6508u     11.3280u     31.5900u  
   80.00000m    -25.3554u   -932.1804u     11.3280u     31.5065u  
   90.00000m    -25.2943u   -940.6847u     11.3280u     31.4232u  
  100.00000m    -25.2332u   -949.1639u     11.3280u     31.3399u  
  110.00000m    -25.1723u   -957.6179u     11.3280u     31.2569u  
  120.00000m    -25.1114u   -966.0471u     11.3280u     31.1739u  
  130.00000m    -25.0507u   -974.4514u     11.3280u     31.0911u  
  140.00000m    -24.9900u   -982.8311u     11.3280u     31.0085u  
  150.00000m    -24.9295u   -991.1862u     11.3280u     30.9260u  
  160.00000m    -24.8690u   -999.5168u     11.3280u     30.8436u  
  170.00000m    -24.8087u     -1.0078m     11.3280u     30.7614u  
  180.00000m    -24.7484u     -1.0161m     11.3280u     30.6794u  
  190.00000m    -24.6883u     -1.0244m     11.3280u     30.5974u  
  200.00000m    -24.6283u     -1.0326m     11.3280u     30.5156u  
  210.00000m    -24.5684u     -1.0408m     11.3280u     30.4340u  
  220.00000m    -24.5085u     -1.0490m     11.3280u     30.3525u  
  230.00000m    -24.4488u     -1.0572m     11.3280u     30.2711u  
  240.00000m    -24.3892u     -1.0653m     11.3280u     30.1899u  
  250.00000m    -24.3296u     -1.0734m     11.3280u     30.1088u  
  260.00000m    -24.2702u     -1.0815m     11.3280u     30.0279u  
  270.00000m    -24.2109u     -1.0896m     11.3280u     29.9470u  
  280.00000m    -24.1516u     -1.0976m     11.3280u     29.8664u  
  290.00000m    -24.0925u     -1.1056m     11.3280u     29.7859u  
  300.00000m    -24.0335u     -1.1136m     11.3280u     29.7055u  
  310.00000m    -23.9745u     -1.1216m     11.3280u     29.6252u  
  320.00000m    -23.9157u     -1.1296m     11.3280u     29.5451u  
  330.00000m    -23.8569u     -1.1375m     11.3280u     29.4651u  
  340.00000m    -23.7983u     -1.1454m     11.3280u     29.3853u  
  350.00000m    -23.7397u     -1.1533m     11.3280u     29.3056u  
  360.00000m    -23.6813u     -1.1612m     11.3280u     29.2261u  
  370.00000m    -23.6229u     -1.1690m     11.3280u     29.1466u  
  380.00000m    -23.5647u     -1.1768m     11.3280u     29.0674u  
  390.00000m    -23.5065u     -1.1846m     11.3280u     28.9882u  
  400.00000m    -23.4484u     -1.1924m     11.3280u     28.9092u  
  410.00000m    -23.3904u     -1.2002m     11.3280u     28.8303u  
  420.00000m    -23.3326u     -1.2079m     11.3280u     28.7516u  
  430.00000m    -23.2748u     -1.2156m     11.3280u     28.6730u  
  440.00000m    -23.2171u     -1.2233m     11.3280u     28.5945u  
  450.00000m    -23.1594u     -1.2310m     11.3280u     28.5162u  
  460.00000m    -23.1019u     -1.2386m     11.3280u     28.4380u  
  470.00000m    -23.0445u     -1.2463m     11.3280u     28.3599u  
  480.00000m    -22.9872u     -1.2539m     11.3280u     28.2820u  
  490.00000m    -22.9299u     -1.2615m     11.3280u     28.2042u  
  500.00000m    -22.8728u     -1.2690m     11.3280u     28.1266u  
  510.00000m    -22.8157u     -1.2766m     11.3280u     28.0490u  
  520.00000m    -22.7587u     -1.2841m     11.3280u     27.9716u  
  530.00000m    -22.7018u     -1.2916m     11.3280u     27.8944u  
  540.00000m    -22.6450u     -1.2991m     11.3280u     27.8172u  
  550.00000m    -22.5883u     -1.3065m     11.3280u     27.7402u  
  560.00000m    -22.5316u     -1.3140m     11.3280u     27.6634u  
  570.00000m    -22.4751u     -1.3214m     11.3280u     27.5867u  
  580.00000m    -22.4186u     -1.3288m     11.3280u     27.5101u  
  590.00000m    -22.3622u     -1.3362m     11.3280u     27.4336u  
  600.00000m    -22.3059u     -1.3435m     11.3280u     27.3572u  
  610.00000m    -22.2497u     -1.3509m     11.3280u     27.2810u  
  620.00000m    -22.1936u     -1.3582m     11.3280u     27.2050u  
  630.00000m    -22.1375u     -1.3655m     11.3280u     27.1290u  
  640.00000m    -22.0816u     -1.3728m     11.3280u     27.0532u  
  650.00000m    -22.0257u     -1.3800m     11.3280u     26.9775u  
  660.00000m    -21.9698u     -1.3873m     11.3280u     26.9019u  
  670.00000m    -21.9141u     -1.3945m     11.3280u     26.8265u  
  680.00000m    -21.8584u     -1.4017m     11.3280u     26.7512u  
  690.00000m    -21.8028u     -1.4089m     11.3280u     26.6760u  
  700.00000m    -21.7473u     -1.4160m     11.3280u     26.6010u  
  710.00000m    -21.6919u     -1.4232m     11.3280u     26.5260u  
  720.00000m    -21.6365u     -1.4303m     11.3280u     26.4512u  
  730.00000m    -21.5812u     -1.4374m     11.3280u     26.3766u  
  740.00000m    -21.5260u     -1.4445m     11.3280u     26.3020u  
  750.00000m    -21.4708u     -1.4515m     11.3280u     26.2276u  
  760.00000m    -21.4157u     -1.4586m     11.3280u     26.1533u  
  770.00000m    -21.3607u     -1.4656m     11.3280u     26.0791u  
  780.00000m    -21.3057u     -1.4726m     11.3280u     26.0051u  
  790.00000m    -21.2508u     -1.4796m     11.3280u     25.9312u  
  800.00000m    -21.1959u     -1.4865m     11.3280u     25.8574u  
  810.00000m    -21.1412u     -1.4935m     11.3280u     25.7837u  
  820.00000m    -21.0864u     -1.5004m     11.3280u     25.7101u  
  830.00000m    -21.0317u     -1.5073m     11.3280u     25.6367u  
  840.00000m    -20.9771u     -1.5142m     11.3280u     25.5634u  
  850.00000m    -20.9225u     -1.5210m     11.3280u     25.4902u  
  860.00000m    -20.8680u     -1.5279m     11.3280u     25.4172u  
  870.00000m    -20.8135u     -1.5347m     11.3280u     25.3442u  
  880.00000m    -20.7591u     -1.5415m     11.3280u     25.2714u  
  890.00000m    -20.7047u     -1.5483m     11.3280u     25.1987u  
  900.00000m    -20.6503u     -1.5550m     11.3280u     25.1261u  
  910.00000m    -20.5960u     -1.5618m     11.3280u     25.0536u  
  920.00000m    -20.5417u     -1.5685m     11.3280u     24.9813u  
  930.00000m    -20.4874u     -1.5752m     11.3280u     24.9090u  
  940.00000m    -20.4332u     -1.5818m     11.3280u     24.8369u  
  950.00000m    -20.3790u     -1.5885m     11.3280u     24.7649u  
  960.00000m    -20.3247u     -1.5951m     11.3280u     24.6930u  
  970.00000m    -20.2705u     -1.6017m     11.3280u     24.6212u  
  980.00000m    -20.2163u     -1.6083m     11.3280u     24.5496u  
  990.00000m    -20.1621u     -1.6149m     11.3280u     24.4780u  
    1.00000     -20.1079u     -1.6214m     11.3280u     24.4066u  
    1.01000     -20.0537u     -1.6279m     11.3280u     24.3353u  
    1.02000     -19.9994u     -1.6344m     11.3280u     24.2641u  
    1.03000     -19.9451u     -1.6408m     11.3280u     24.1930u  
    1.04000     -19.8908u     -1.6472m     11.3280u     24.1220u  
    1.05000     -19.8364u     -1.6536m     11.3280u     24.0511u  
    1.06000     -19.7820u     -1.6600m     11.3280u     23.9804u  
    1.07000     -19.7275u     -1.6663m     11.3280u     23.9097u  
    1.08000     -19.6728u     -1.6726m     11.3280u     23.8392u  
    1.09000     -19.6181u     -1.6789m     11.3280u     23.7687u  
    1.10000     -19.5633u     -1.6851m     11.3280u     23.6984u  
    1.11000     -19.5083u     -1.6913m     11.3280u     23.6282u  
    1.12000     -19.4531u     -1.6975m     11.3280u     23.5580u  
    1.13000     -19.3977u     -1.7036m     11.3280u     23.4880u  
    1.14000     -19.3421u     -1.7096m     11.3280u     23.4181u  
    1.15000     -19.2862u     -1.7156m     11.3280u     23.3483u  
    1.16000     -19.2300u     -1.7216m     11.3280u     23.2786u  
    1.17000     -19.1734u     -1.7274m     11.3280u     23.2089u  
    1.18000     -19.1163u     -1.7332m     11.3280u     23.1394u  
    1.19000     -19.0588u     -1.7389m     11.3280u     23.0700u  
    1.20000     -19.0007u     -1.7446m     11.3280u     23.0007u  
    1.21000     -18.9418u     -1.7501m     11.3280u     22.9315u  
    1.22000     -18.8821u     -1.7555m     11.3280u     22.8623u  
    1.23000     -18.8214u     -1.7607m     11.3280u     22.7933u  
    1.24000     -18.7594u     -1.7658m     11.3280u     22.7243u  
    1.25000     -18.6960u     -1.7707m     11.3280u     22.6555u  
    1.26000     -18.6307u     -1.7753m     11.3280u     22.5867u  
    1.27000     -18.5633u     -1.7796m     11.3280u     22.5180u  
    1.28000     -18.4930u     -1.7836m     11.3280u     22.4494u  
    1.29000     -18.4192u     -1.7871m     11.3280u     22.3809u  
    1.30000     -18.3410u     -1.7900m     11.3280u     22.3125u  
    1.31000     -18.2571u     -1.7921m     11.3280u     22.2441u  
    1.32000     -18.1658u     -1.7933m     11.3280u     22.1758u  
    1.33000     -18.0648u     -1.7932m     11.3280u     22.1076u  
    1.34000     -17.9510u     -1.7915m     11.3280u     22.0394u  
    1.35000     -17.8202u     -1.7874m     11.3280u     21.9714u  
    1.36000     -17.6667u     -1.7804m     11.3280u     21.9033u  
    1.37000     -17.4830u     -1.7693m     11.3280u     21.8353u  
    1.38000     -17.2596u     -1.7527m     11.3280u     21.7674u  
    1.39000     -16.9849u     -1.7292m     11.3280u     21.6994u  
    1.40000     -16.6463u     -1.6967m     11.3280u     21.6315u  
    1.41000     -16.2317u     -1.6534m     11.3280u     21.5635u  
    1.42000     -15.7319u     -1.5973m     11.3280u     21.4956u  
    1.43000     -15.1424u     -1.5269m     11.3280u     21.4275u  
    1.44000     -14.4651u     -1.4412m     11.3280u     21.3595u  
    1.45000     -13.7077u     -1.3393m     11.3280u     21.2913u  
    1.46000     -12.8823u     -1.2212m     11.3280u     21.2231u  
    1.47000     -12.0041u     -1.0866m     11.3280u     21.1549u  
    1.48000     -11.0898u   -935.9351u     11.3280u     21.0865u  
    1.49000     -10.1565u   -769.3123u     11.3280u     21.0181u  
    1.50000      -9.2207u   -587.1485u     11.3280u     20.9496u  
    1.51000      -8.2980u   -389.8887u     11.3280u     20.8810u  
    1.52000      -7.4023u   -178.0601u     11.3280u     20.8123u  
    1.53000      -6.5456u     47.7144u     11.3280u     20.7436u  
    1.54000      -5.7379u    286.7026u     11.3280u     20.6747u  
    1.55000      -4.9869u    538.0548u     11.3280u     20.6058u  
    1.56000      -4.2977u    800.8058u     11.3280u     20.5368u  
    1.57000      -3.6734u      1.0739m     11.3280u     20.4677u  
    1.58000      -3.1148u      1.3562m     11.3280u     20.3985u  
    1.59000      -2.6210u      1.6465m     11.3280u     20.3291u  
    1.60000      -2.1893u      1.9437m     11.3280u     20.2597u  
    1.61000      -1.8160u      2.2467m     11.3280u     20.1902u  
    1.62000      -1.4965u      2.5544m     11.3280u     20.1205u  
    1.63000      -1.2256u      2.8661m     11.3280u     20.0507u  
    1.64000    -997.9997n      3.1811m     11.3280u     19.9807u  
    1.65000    -808.3324n      3.4986m     11.3280u     19.9105u  
    1.66000    -651.5036n      3.8185m     11.3280u     19.8402u  
    1.67000    -522.7449n      4.1402m     11.3280u     19.7696u  
    1.68000    -417.7169n      4.4638m     11.3280u     19.6987u  
    1.69000    -332.5518n      4.7890m     11.3280u     19.6275u  
    1.70000    -263.8627n      5.1159m     11.3280u     19.5559u  
    1.71000    -208.7301n      5.4445m     11.3280u     19.4838u  
    1.72000    -164.6709n      5.7749m     11.3280u     19.4112u  
    1.73000    -129.5981n      6.1071m     11.3280u     19.3380u  
    1.74000    -101.7759n      6.4412m     11.3280u     19.2640u  
    1.75000     -79.7738n      6.7774m     11.3280u     19.1890u  
    1.76000     -62.4223n      7.1157m     11.3280u     19.1129u  
    1.77000     -48.7716n      7.4563m     11.3280u     19.0354u  
    1.78000     -38.0557n      7.7992m     11.3280u     18.9562u  
    1.79000     -29.6597n      8.1446m     11.3280u     18.8747u  
    1.80000     -23.0924n      8.4927m     11.3280u     18.7904u  
    1.81000     -17.9631n      8.8435m     11.3280u     18.7023u  
    1.82000     -13.9623n      9.1973m     11.3280u     18.6093u  
    1.83000     -10.8452n      9.5543m     11.3280u     18.5097u  
    1.84000      -8.4191n      9.9146m     11.3280u     18.4008u  
    1.85000      -6.5326n     10.2784m     11.3280u     18.2788u  
    1.86000      -5.0668n     10.6461m     11.3280u     18.1378u  
    1.87000      -3.9286n     11.0176m     11.3280u     17.9687u  
    1.88000      -3.0455n     11.3928m     11.3280u     17.7570u  
    1.89000      -2.3606n     11.7709m     11.3280u     17.4798u  
    1.90000      -1.8297n     12.1504m     11.3280u     17.1014u  
    1.91000      -1.4184n     12.5284m     11.3280u     16.5694u  
    1.92000      -1.1000n     12.9003m     11.3280u     15.8131u  
    1.93000    -853.5118p     13.2596m     11.3280u     14.7505u  
    1.94000    -662.8533p     13.5974m     11.3280u     13.3039u  
    1.95000    -515.4488p     13.8986m     11.3280u     11.4169u  
    1.96000    -401.8740p     14.1277m     11.3280u      8.6374u  
    1.97000    -314.2315p     14.1856m     11.3280u      5.7207u  
    1.98000    -247.4101p     13.6526m     11.3280u      2.5226u  
    1.99000    -200.4841p      9.6714m     11.3280u    134.0481n  
    2.00000    -166.5490p     -2.3224u     11.3280u    921.0503p  
    2.01000    -131.9725p    -10.0009m     11.3280u    370.1024p  
    2.02000    -104.1262p    -20.0007m     11.3280u    286.2082p  
    2.03000     -82.4650p    -30.0006m     11.3280u    237.8023p  
    2.04000     -65.6012p    -40.0006m     11.3280u    219.8400p  
    2.05000     -52.5444p    -50.0005m     11.3280u    206.9510p  
    2.06000     -42.4390p    -60.0005m     11.3280u    197.8518p  
    2.07000     -34.6213p    -70.0005m     11.3280u    191.3119p  
    2.08000     -28.5753p    -80.0005m     11.3280u    186.5338p  
    2.09000     -23.9006p    -90.0005m     11.3280u    182.9969p  
    2.10000     -20.2868p   -100.0004m     11.3280u    180.3523p  
    2.11000     -17.4937p   -110.0004m     11.3280u    178.3595p  
    2.12000     -15.3349p   -120.0004m     11.3280u    176.8492p  
    2.13000     -13.6667p   -130.0004m     11.3280u    175.6993p  
    2.14000     -12.3776p   -140.0004m     11.3280u    174.8210p  
    2.15000     -11.3816p   -150.0004m     11.3280u    174.1483p  
    2.16000     -10.6120p   -160.0004m     11.3280u    173.6320p  
    2.17000     -10.0173p   -170.0004m     11.3280u    173.2353p  
    2.18000      -9.5579p   -180.0004m     11.3280u    172.9299p  
    2.19000      -9.2030p   -190.0004m     11.3280u    172.6948p  
    2.20000      -8.9288p   -200.0004m     11.3280u    172.5136p  
    2.21000      -8.7169p   -210.0004m     11.3280u    172.3738p  
    2.22000      -8.5533p   -220.0004m     11.3280u    172.2660p  
    2.23000      -8.4268p   -230.0004m     11.3280u    172.1828p  
    2.24000      -8.3292p   -240.0004m     11.3280u    172.1186p  
    2.25000      -8.2537p   -250.0004m     11.3280u    172.0690p  
    2.26000      -8.1954p   -260.0004m     11.3280u    172.0307p  
    2.27000      -8.1504p   -270.0004m     11.3280u    172.0012p  
    2.28000      -8.1156p   -280.0004m     11.3280u    171.9784p  
    2.29000      -8.0887p   -290.0004m     11.3280u    171.9607p  
    2.30000      -8.0680p   -300.0004m     11.3280u    171.9471p  
    2.31000      -8.0519p   -310.0004m     11.3280u    171.9366p  
    2.32000      -8.0395p   -320.0004m     11.3280u    171.9285p  
    2.33000      -8.0300p   -330.0004m     11.3280u    171.9222p  
    2.34000      -8.0226p   -340.0004m     11.3280u    171.9173p  
    2.35000      -8.0169p   -350.0004m     11.3280u    171.9136p  
    2.36000      -8.0125p   -360.0004m     11.3280u    171.9107p  
    2.37000      -8.0091p   -370.0004m     11.3280u    171.9085p  
    2.38000      -8.0064p   -380.0004m     11.3280u    171.9067p  
    2.39000      -8.0044p   -390.0004m     11.3280u    171.9054p  
    2.40000      -8.0028p   -400.0004m     11.3280u    171.9044p  
    2.41000      -8.0016p   -410.0004m     11.3280u    171.9036p  
    2.42000      -8.0007p   -420.0004m     11.3280u    171.9030p  
    2.43000      -7.9999p   -430.0004m     11.3280u    171.9025p  
    2.44000      -7.9994p   -440.0004m     11.3280u    171.9021p  
    2.45000      -7.9989p   -450.0004m     11.3280u    171.9018p  
    2.46000      -7.9986p   -460.0004m     11.3280u    171.9016p  
    2.47000      -7.9984p   -470.0004m     11.3280u    171.9015p  
    2.48000      -7.9982p   -480.0004m     11.3280u    171.9013p  
    2.49000      -7.9980p   -490.0004m     11.3280u    171.9012p  
    2.50000      -7.9979p   -500.0004m     11.3280u    171.9011p  
y
 **info** dc convergence successful at GMINDC ramping method 
1****** HSPICE -- I-2013.12-SP2-1 32-BIT (Jun 10 2014) RHEL32 ******            
 ******  
 opamp! schhweeeet

 ****** operating point information tnom=  25.000 temp=  25.000 ******
 ****** operating point status is all       simulation time is     0.     
    node    =voltage      node    =voltage      node    =voltage

 +0:n1      =-863.2241u 0:n10     =  -1.4336  0:n2      =   0.     
 +0:n3      = 794.3970m 0:n4      =  -1.4457  0:n5      =  -1.4653 
 +0:n6      =   1.4432  0:n7      =-863.2241u 0:n8      =-863.2241u
 +0:n9      =-852.4589m 0:nvdd    =   2.0000  0:nvss    =  -2.0000 


 **** voltage sources

 subckt                                   
 element  0:vdd      0:vi2      0:vss     
  volts      2.0000     0.         2.0000 
  current -145.3825u    0.      -145.3825u
  power    290.7651u    0.       290.7651u

     total voltage source power dissipation=  581.5301u       watts



 **** current sources

 subckt             
 element  0:ibias   
  volts      3.4432 
  current   10.0000u
  power    -34.4321u


     total current source power dissipation= -34.4321u       watts

 **** resistors

 subckt                        
 element  0:r1       0:r2      
  r value    1.6260k   50.0000k
  v drop   1.084e-19  566.3994m
  current  6.668e-23   11.3280u
  power      0.         6.4162u



 **** mosfets


 subckt                                                                    
 element  0:m1       0:m2       0:m3       0:m4       0:m5       0:m6      
 model    0:cmosp    0:cmosp    0:cmosn    0:cmosn    0:cmosp    0:cmosn   
 region       Cutoff     Cutoff   Saturati   Saturati     Cutoff   Saturati
  id       -26.0840u  -25.8480u   26.0840u   25.8480u  -51.9320u   32.1787u
  ibs        0.         0.         0.         0.         0.         0.     
  ibd        0.         0.         0.         0.         0.         0.     
  vgs     -795.2602m -794.3970m  554.2965m  554.2965m -556.7867m  534.6766m
  vds       -2.2401    -2.2597   554.2965m  534.6766m   -1.2056     1.9991 
  vbs        1.2056     1.2056     0.         0.         0.         0.     
  vth     -808.7146m -808.5101m  512.7326m  512.8310m -575.1458m  505.4898m
  vdsat    -89.2894m  -88.9850m   83.8669m   83.8177m  -82.5733m   77.9244m
  vod       13.4544m   14.1131m   41.5639m   41.4655m   18.3592m   29.1868m
  beta      12.1293m   12.1322m    9.8752m    9.8750m   28.4346m    9.8931m
  gam eff  415.7566m  415.7566m  359.8732m  359.8732m  452.3497m  359.8732m
  gm       450.3951u  446.9545u  462.7478u  459.0672u  876.8186u  574.6022u
  gds        7.7465u    7.6792u   12.0367u   12.0189u   14.7963u   10.7157u
  gmb       79.7557u   79.1340u  102.9420u  102.1114u  231.9934u  128.9583u
  cdtot     70.4138f   70.3187f   24.9604f   25.0662f  176.3064f   20.2013f
  cgtot     67.7201f   67.4966f   22.2889f   22.2834f  141.3918f   21.4662f
  cstot    103.1073f  102.9387f   36.1880f   36.1835f  262.5498f   35.5607f
  cbtot    134.9580f  134.8614f   48.1328f   48.2385f  373.2828f   43.3756f
  cgs       41.2818f   41.0153f   16.3289f   16.3217f   79.3554f   15.3157f
  cgd       17.7622f   17.7646f    4.6323f    4.6326f   35.6738f    4.6348f



 subckt                                                         
 element  0:m7       0:m8       0:m9       0:m10      0:m11     
 model    0:cmosp    0:cmosp    0:cmosp    0:cmosn    0:cmosn   
 region       Cutoff     Cutoff     Cutoff     Cutoff   Saturati
  id       -32.1787u  -21.3280u  -39.9438u   11.3280u   39.9438u
  ibs        0.         0.         0.         0.         0.     
  ibd        0.         0.         0.         0.         0.     
  vgs     -556.7867m -556.7867m -556.7867m  581.1417m  566.3994m
  vds       -2.0009  -556.7867m   -2.8525     2.8768     1.1475 
  vbs        0.         0.         0.      -566.3994m    0.     
  vth     -569.0317m -579.7812m -562.6926m  615.6627m  509.7594m
  vdsat    -84.5692m  -80.1006m  -87.3845m   59.2702m   91.7828m
  vod       12.2451m   22.9945m    5.9060m  -34.5210m   56.6401m
  beta      14.2676m   14.1782m   14.3197m    9.4881m    9.6163m
  gam eff  452.0995m  452.0995m  452.0995m  350.7668m  359.8937m
  gm       530.6209u  366.3995u  642.3184u  238.9168u  654.2616u
  gds        8.4670u    6.7455u    9.7957u    3.4589u   14.9993u
  gmb      139.5574u   96.7423u  168.2328u   42.8600u  145.8055u
  cdtot     79.7879f   99.4734f   73.6550f   17.4767f   21.8830f
  cgtot     72.4246f   69.5081f   74.2231f   15.5320f   22.5191f
  cstot    132.9369f  130.4206f  134.4736f   26.8715f   35.8938f
  cbtot    178.5612f  198.1269f  172.5008f   35.3490f   44.4670f
  cgs       41.8013f   38.1846f   44.0169f    8.9270f   16.9208f
  cgd       17.8229f   17.8468f   17.8094f    4.5441f    4.5070f




          ***** job concluded
1****** HSPICE -- I-2013.12-SP2-1 32-BIT (Jun 10 2014) RHEL32 ******            
 ******  
 opamp! schhweeeet

 ****** job statistics summary tnom=  25.000 temp=  25.000 ******
  
  
 ******  Machine Information  ******
 CPU:
 model name	: Intel(R) Xeon(R) CPU           E5603  @ 1.60GHz
 cpu MHz	: 1596.065
  
 OS:
 Linux version 2.6.32-573.12.1.el6.x86_64 (mockbuild@x86-031.build.eng.bos.redhat.com) (gcc version 4.4.7 20120313 (Red Hat 4.4.7-16) (GCC) ) #1 SMP Mon Nov 23 12:55:32 EST 2015


  ******  HSPICE Threads Information  ******

  Command Line Threads Count :     1
  Available CPU Count        :     8
  Actual Threads Count       :     1


  ******  Circuit Statistics  ******
  # nodes       =      13 # elements   =      19
  # resistors   =       3 # capacitors =       1 # inductors   =       0
  # mutual_inds =       0 # vccs       =       0 # vcvs        =       0
  # cccs        =       0 # ccvs       =       0 # volt_srcs   =       3
  # curr_srcs   =       1 # diodes     =       0 # bjts        =       0
  # jfets       =       0 # mosfets    =      11 # U elements  =       0
  # T elements  =       0 # W elements =       0 # B elements  =       0
  # S elements  =       0 # P elements =       0 # va device   =       0
  # vector_srcs =       0 # N elements =       0


  ******  Runtime Statistics (seconds)  ******

  analysis           time    # points   tot. iter  conv.iter
  op point           0.01           1         230
  dc sweep           0.05         501        1038
  readin             0.00
  errchk             0.01
  setup              0.00
  output             0.00


           peak memory used        120.31 megabytes
           total cpu time            0.07 seconds
           total elapsed time        1.60 seconds
           job started at     21:17:00 03/25/2016
           job ended   at     21:17:02 03/25/2016


 lic: Release hspice token(s) 
 lic: total license checkout elapse time:        1.49(s)
